CemigDFeeders/ANAD08/ANAD08SegmentosMT.dss
new line.TR12144086 bus1=BMT159628684.1.2.3,bus2=BMT149310367.1.2.3,Phases=3,Linecode=CAB207_3_3,Length=0.050990000,Units=km
new line.TR12152214 bus1=BMT167854994.1,bus2=BMT167854995.1,Phases=1,Linecode=CAB202_3_1,Length=0.161500000,Units=km
new line.TR12198597 bus1=BMT158879275.1.2.3,bus2=BMT1190553B.1.2.3,Phases=3,Linecode=CABA06_3_3,Length=0.034180000,Units=km
new line.TR12198598 bus1=BMT1190553B.1.2.3,bus2=BMT1190546B.1.2.3,Phases=3,Linecode=CABA06_3_3,Length=0.035120000,Units=km
new line.TR12198599 bus1=BMT1190546B.1.2.3,bus2=BMT1190539B.1.2.3,Phases=3,Linecode=CABA06_3_3,Length=0.038630000,Units=km
new line.TR12198600 bus1=BMT1190539B.1.2.3,bus2=BMT158879276.1.2.3,Phases=3,Linecode=CABA06_3_3,Length=0.039560000,Units=km
new line.TR12224555 bus1=BMT168467679.1.2.3,bus2=BMT4285967B.1.2.3,Phases=3,Linecode=CABA06_3_3,Length=0.036020000,Units=km
new line.TR12224556 bus1=BMT4285967B.1.2.3,bus2=BMT4285981B.1.2.3,Phases=3,Linecode=CABA06_3_3,Length=0.036000000,Units=km
new line.TR12224557 bus1=BMT4285981B.1.2.3,bus2=BMT4285988B.1.2.3,Phases=3,Linecode=CABA06_3_3,Length=0.023000000,Units=km
new line.TR12224589 bus1=BMT4285988B.1.2.3,bus2=BMT8825310B.1.2.3,Phases=3,Linecode=CABA06_3_3,Length=0.025080000,Units=km
new line.TR12224590 bus1=BMT8825310B.1.2.3,bus2=BMT8825338B.1.2.3,Phases=3,Linecode=CABA06_3_3,Length=0.040000000,Units=km
new line.TR12224600 bus1=BMT8825338B.1.2.3,bus2=BMT8825339B.1.2.3,Phases=3,Linecode=CABA06_3_3,Length=0.039000000,Units=km
new line.TR12224601 bus1=BMT8825339B.1.2.3,bus2=BMT168467680.1.2.3,Phases=3,Linecode=CABA06_3_3,Length=0.036130000,Units=km
new line.TR12260133 bus1=BMT2968721B.1.2.3,bus2=BMT153422187.1.2.3,Phases=3,Linecode=CABA06_3_3,Length=0.038900000,Units=km
new line.TR12260136 bus1=BMT160447332.1.2.3,bus2=BMT2968735B.1.2.3,Phases=3,Linecode=CABA06_3_3,Length=0.038080000,Units=km
new line.TR12260137 bus1=BMT2968735B.1.2.3,bus2=BMT8862142B.1.2.3,Phases=3,Linecode=CABA06_3_3,Length=0.039820000,Units=km
new line.TR12260140 bus1=BMT8862142B.1.2.3,bus2=BMT8862152B.1.2.3,Phases=3,Linecode=CABA06_3_3,Length=0.026080000,Units=km
new line.TR12260141 bus1=BMT8862152B.1.2.3,bus2=BMT8862156B.1.2.3,Phases=3,Linecode=CABA06_3_3,Length=0.028860000,Units=km
new line.TR12260143 bus1=BMT8862156B.1.2.3,bus2=BMT160447333.1.2.3,Phases=3,Linecode=CABA06_3_3,Length=0.032990000,Units=km
new line.TR12260147 bus1=BMT8862160B.1.2.3,bus2=BMT8862162B.1.2.3,Phases=3,Linecode=CABA06_3_3,Length=0.032020000,Units=km
new line.TR12260151 bus1=BMT8862162B.1.2.3,bus2=BMT8862169B.1.2.3,Phases=3,Linecode=CABA06_3_3,Length=0.027900000,Units=km
new line.TR12260153 bus1=BMT8862169B.1.2.3,bus2=BMT8862174B.1.2.3,Phases=3,Linecode=CABA06_3_3,Length=0.030090000,Units=km
new line.TR12260154 bus1=BMT8862174B.1.2.3,bus2=BMT160447334.1.2.3,Phases=3,Linecode=CABA06_3_3,Length=0.027320000,Units=km
new line.TR12260158 bus1=BMT8862182B.1.2.3,bus2=BMT8862227B.1.2.3,Phases=3,Linecode=CABA06_3_3,Length=0.038470000,Units=km
new line.TR12260160 bus1=BMT8862227B.1.2.3,bus2=BMT8862228B.1.2.3,Phases=3,Linecode=CABA06_3_3,Length=0.035780000,Units=km
new line.TR12260163 bus1=BMT8862228B.1.2.3,bus2=BMT8862230B.1.2.3,Phases=3,Linecode=CABA06_3_3,Length=0.046530000,Units=km
new line.TR12260169 bus1=BMT8862230B.1.2.3,bus2=BMT160447335.1.2.3,Phases=3,Linecode=CABA06_3_3,Length=0.008950000,Units=km
new line.TR12260170 bus1=BMT160447335.1.2.3,bus2=BMT160447336.1.2.3,Phases=3,Linecode=CABA06_3_3,Length=0.028180000,Units=km
new line.TR12260177 bus1=BMT160447335.1.2.3,bus2=BMT8862406B.1.2.3,Phases=3,Linecode=CABA06_3_3,Length=0.030890000,Units=km
new line.TR12260181 bus1=BMT160447335.1.2.3,bus2=BMT8862287B.1.2.3,Phases=3,Linecode=CABA06_3_3,Length=0.011710000,Units=km
new line.TR12260196 bus1=BMT8862294B.1.2.3,bus2=BMT8862288B.1.2.3,Phases=3,Linecode=CABA06_3_3,Length=0.029070000,Units=km
new line.TR12260210 bus1=BMT8862287B.1.2.3,bus2=BMT160447337.1.2.3,Phases=3,Linecode=CABA06_3_3,Length=0.039360000,Units=km
new line.TR12260211 bus1=BMT160447337.1.2.3,bus2=BMT8862294B.1.2.3,Phases=3,Linecode=CABA06_3_3,Length=0.003610000,Units=km
new line.TR12260215 bus1=BMT160447337.1.2.3,bus2=BMT8862273B.1.2.3,Phases=3,Linecode=CABA06_3_3,Length=0.006710000,Units=km
new line.TR12260216 bus1=BMT160447337.1.2.3,bus2=BMT8862275B.1.2.3,Phases=3,Linecode=CABA06_3_3,Length=0.029070000,Units=km
new line.TR12260224 bus1=BMT8862275B.1.2.3,bus2=BMT8862276B.1.2.3,Phases=3,Linecode=CABA06_3_3,Length=0.037120000,Units=km
new line.TR12260225 bus1=BMT8862276B.1.2.3,bus2=BMT160447339.1.2.3,Phases=3,Linecode=CABA06_3_3,Length=0.034000000,Units=km
new line.TR12260227 bus1=BMT8862288B.1.2.3,bus2=BMT160447338.1.2.3,Phases=3,Linecode=CABA06_3_3,Length=0.018030000,Units=km
new line.TR12260228 bus1=BMT160447338.1.2.3,bus2=BMT160447340.1.2.3,Phases=3,Linecode=CABA06_3_3,Length=0.021930000,Units=km
new line.TR12260231 bus1=BMT160447338.1.2.3,bus2=BMT8862369B.1.2.3,Phases=3,Linecode=CABA06_3_3,Length=0.025500000,Units=km
new line.TR12260233 bus1=BMT160447338.1.2.3,bus2=BMT8862365B.1.2.3,Phases=3,Linecode=CABA06_3_3,Length=0.007810000,Units=km
new line.TR12260236 bus1=BMT8862365B.1.2.3,bus2=BMT8862364B.1.2.3,Phases=3,Linecode=CABA06_3_3,Length=0.037120000,Units=km
new line.TR12260241 bus1=BMT8862364B.1.2.3,bus2=BMT160447341.1.2.3,Phases=3,Linecode=CABA06_3_3,Length=0.038020000,Units=km
new line.TR12261788 bus1=BMT160447333.1.2.3,bus2=BMT8862160B.1.2.3,Phases=3,Linecode=CABA06_3_3,Length=0.035000000,Units=km
new line.TR12261790 bus1=BMT160447334.1.2.3,bus2=BMT8862182B.1.2.3,Phases=3,Linecode=CABA06_3_3,Length=0.032650000,Units=km
new line.TR12271582 bus1=BMT3934511B.3,bus2=BMT161338384.3,Phases=1,Linecode=CAB202_3_1,Length=0.041400000,Units=km
new line.TR12271583 bus1=BMT161338384.3,bus2=BMT3934518B.3,Phases=1,Linecode=CAB202_3_1,Length=0.130210000,Units=km
new line.TR12271639 bus1=BMT161338384.3,bus2=BMT161338386.3,Phases=1,Linecode=CAB103_3_1,Length=0.069310000,Units=km
new line.TR12323636 bus1=BMT157828940.1.2.3,bus2=BMT1188593B.1.2.3,Phases=3,Linecode=CABA06_3_3,Length=0.038210000,Units=km
new line.TR12323642 bus1=BMT1188593B.1.2.3,bus2=BMT1188586B.1.2.3,Phases=3,Linecode=CABA06_3_3,Length=0.036130000,Units=km
new line.TR12323644 bus1=BMT1188586B.1.2.3,bus2=BMT1188579B.1.2.3,Phases=3,Linecode=CABA06_3_3,Length=0.041200000,Units=km
new line.TR12323645 bus1=BMT1188579B.1.2.3,bus2=BMT157828941.1.2.3,Phases=3,Linecode=CABA06_3_3,Length=0.035130000,Units=km
new line.TR12457401 bus1=BMT160439952.1.2.3,bus2=BMT9065782B.1.2.3,Phases=3,Linecode=CAB202_3_3,Length=0.091690000,Units=km
new line.TR12457491 bus1=BMT9065782B.1.2.3,bus2=BMT9065781B.1.2.3,Phases=3,Linecode=CAB202_3_3,Length=0.127630000,Units=km
new line.TR12457523 bus1=BMT9065781B.1.2.3,bus2=BMT2548329B.1.2.3,Phases=3,Linecode=CAB202_3_3,Length=0.084010000,Units=km
new line.TR12210918 bus1=BMT1190357B.1.2.3,bus2=BMT8811883B.1.2.3,Phases=3,Linecode=CABA06_3_3,Length=0.025630000,Units=km
new line.TR12210919 bus1=BMT8811883B.1.2.3,bus2=BMT8811884B.1.2.3,Phases=3,Linecode=CABA06_3_3,Length=0.028000000,Units=km
new line.TR12210920 bus1=BMT8811884B.1.2.3,bus2=BMT8811886B.1.2.3,Phases=3,Linecode=CABA06_3_3,Length=0.007810000,Units=km
new line.TR12210921 bus1=BMT8811886B.1.2.3,bus2=BMT8811887B.1.2.3,Phases=3,Linecode=CABA06_3_3,Length=0.039050000,Units=km
new line.TR12210923 bus1=BMT8811887B.1.2.3,bus2=BMT8811888B.1.2.3,Phases=3,Linecode=CABA06_3_3,Length=0.037020000,Units=km
new line.TR12210926 bus1=BMT8811888B.1.2.3,bus2=BMT170083325.1.2.3,Phases=3,Linecode=CABA06_3_3,Length=0.040170000,Units=km
new line.TR12375877 bus1=BMT8352385B.1.2.3,bus2=BMT169151456.1.2.3,Phases=3,Linecode=CAB202_3_3,Length=0.060090000,Units=km
new line.TR12375878 bus1=BMT169151456.1.2.3,bus2=BMT169151458.1.2.3,Phases=3,Linecode=CAB202_3_3,Length=0.094260000,Units=km
new line.TR12375880 bus1=BMT169151456.1.2.3,bus2=BMT169151459.1.2.3,Phases=3,Linecode=CAB202_3_3,Length=0.119050000,Units=km
new line.TR12375883 bus1=BMT169151459.1.2.3,bus2=BMT169151460.1.2.3,Phases=3,Linecode=CAB103_3_3,Length=0.030070000,Units=km
new line.TR12413792 bus1=BMT158862725.1.2.3,bus2=BMT1194053B.1.2.3,Phases=3,Linecode=CABA06_3_3,Length=0.022360000,Units=km
new line.TR12413794 bus1=BMT1194053B.1.2.3,bus2=BMT158862737.1.2.3,Phases=3,Linecode=CABA06_3_3,Length=0.032650000,Units=km
new line.TR12493244 bus1=BMT167813373.1.2.3,bus2=BMT167813374.1.2.3,Phases=3,Linecode=CAB107_3_3,Length=0.025620000,Units=km
new line.TR12493245 bus1=BMT167813374.1.2.3,bus2=BMT167813375.1.2.3,Phases=3,Linecode=CAB107_3_3,Length=0.011400000,Units=km
new line.TR12497602 bus1=BMT163292908.3,bus2=BMT162308590.3,Phases=1,Linecode=CAB202_3_1,Length=0.432180000,Units=km
new line.TR12497603 bus1=BMT162308590.3,bus2=BMT163292911.3,Phases=1,Linecode=CAB202_3_1,Length=0.020000000,Units=km
new line.TR12497605 bus1=BMT162308610.3,bus2=BMT162308611.3,Phases=1,Linecode=CAB103_3_1,Length=0.061080000,Units=km
new line.TR12592783 bus1=BMT166262762.1.2.3,bus2=BMT9201686B.1.2.3,Phases=3,Linecode=CABA06_3_3,Length=0.044420000,Units=km
new line.TR12592786 bus1=BMT9201686B.1.2.3,bus2=BMT166262763.1.2.3,Phases=3,Linecode=CABA06_3_3,Length=0.038910000,Units=km
new line.TR12592794 bus1=BMT166262763.1.2.3,bus2=BMT166262764.1.2.3,Phases=3,Linecode=CABA06_3_3,Length=0.038080000,Units=km
new line.TR12592797 bus1=BMT166262764.1.2.3,bus2=BMT9201744B.1.2.3,Phases=3,Linecode=CABA06_3_3,Length=0.031020000,Units=km
new line.TR12592798 bus1=BMT9201744B.1.2.3,bus2=BMT9201746B.1.2.3,Phases=3,Linecode=CABA06_3_3,Length=0.030680000,Units=km
new line.TR12592807 bus1=BMT166262764.1.2.3,bus2=BMT9201700B.1.2.3,Phases=3,Linecode=CABA06_3_3,Length=0.025460000,Units=km
new line.TR12592808 bus1=BMT9201700B.1.2.3,bus2=BMT9201702B.1.2.3,Phases=3,Linecode=CABA06_3_3,Length=0.029410000,Units=km
new line.TR12592810 bus1=BMT9201702B.1.2.3,bus2=BMT9201704B.1.2.3,Phases=3,Linecode=CABA06_3_3,Length=0.035230000,Units=km
new line.TR12592812 bus1=BMT9201704B.1.2.3,bus2=BMT166262766.1.2.3,Phases=3,Linecode=CABA06_3_3,Length=0.039410000,Units=km
new line.TR12592849 bus1=BMT9201746B.1.2.3,bus2=BMT9201748B.1.2.3,Phases=3,Linecode=CABA06_3_3,Length=0.024700000,Units=km
new line.TR12592851 bus1=BMT9201748B.1.2.3,bus2=BMT9201757B.1.2.3,Phases=3,Linecode=CABA06_3_3,Length=0.036400000,Units=km
new line.TR12592852 bus1=BMT9201757B.1.2.3,bus2=BMT166262765.1.2.3,Phases=3,Linecode=CABA06_3_3,Length=0.028460000,Units=km
new line.TR12682957 bus1=BMT169151455.1.2.3,bus2=BMT169151457.1.2.3,Phases=3,Linecode=CAB103_3_3,Length=0.061080000,Units=km
new line.TR1519056 bus1=BMT2596426.1.2.3,bus2=BMT119816750.1.2.3,Phases=3,Linecode=CAB202_3_3,Length=0.065200000,Units=km
new line.TR1519063 bus1=BMT119816757.1.2.3,bus2=BMT2532642B.1.2.3,Phases=3,Linecode=CAB202_3_3,Length=0.180900000,Units=km
new line.TR1519070 bus1=BMT2297946B.1.2.3,bus2=BMT119816771.1.2.3,Phases=3,Linecode=CAB202_3_3,Length=0.095220000,Units=km
new line.TR1519077 bus1=BMT152269101.1.2.3,bus2=BMT2596426.1.2.3,Phases=3,Linecode=CAB202_3_3,Length=0.085600000,Units=km
new line.TR1519084 bus1=BMT152269101.1.2.3,bus2=BMT152269103.1.2.3,Phases=3,Linecode=CAB103_3_3,Length=0.018000000,Units=km
new line.TR1519091 bus1=BMT152269100.1.2.3,bus2=BMT152269101.1.2.3,Phases=3,Linecode=CAB202_3_3,Length=0.141440000,Units=km
new line.TR1519098 bus1=BMT152269097.1.2.3,bus2=BMT119816694.1.2.3,Phases=3,Linecode=CAB202_3_3,Length=0.041240000,Units=km
new line.TR1519105 bus1=BMT160705878.1.2.3,bus2=BMT2297981B.1.2.3,Phases=3,Linecode=CAB202_3_3,Length=0.112370000,Units=km
new line.TR1519112 bus1=BMT119816694.1.2.3,bus2=BMT2548784B.1.2.3,Phases=3,Linecode=CAB202_3_3,Length=0.071600000,Units=km
new line.TR1519119 bus1=BMT152269096.1.2.3,bus2=BMT152269097.1.2.3,Phases=3,Linecode=CAB202_3_3,Length=0.060010000,Units=km
new line.TR1519126 bus1=BMT152269097.1.2.3,bus2=BMT2548791B.1.2.3,Phases=3,Linecode=CAB202_3_3,Length=0.042730000,Units=km
new line.TR1519133 bus1=BMT2297981B.1.2.3,bus2=BMT2547755B.1.2.3,Phases=3,Linecode=CAB202_3_3,Length=0.133150000,Units=km
new line.TR1519140 bus1=BMT160705879.1.2.3,bus2=BMT160705880.1.2.3,Phases=3,Linecode=CAB103_3_3,Length=0.080630000,Units=km
new line.TR1519147 bus1=BMT160705879.1.2.3,bus2=BMT2297995B.1.2.3,Phases=3,Linecode=CAB202_3_3,Length=0.111820000,Units=km
new line.TR1519154 bus1=BMT160705879.1.2.3,bus2=BMT119816932.1.2.3,Phases=3,Linecode=CAB202_3_3,Length=0.140100000,Units=km
new line.TR1519161 bus1=BMT2297995B.1.2.3,bus2=BMT160705881.1.2.3,Phases=3,Linecode=CAB202_3_3,Length=0.194510000,Units=km
new line.TR1519168 bus1=BMT139196047.1.2.3,bus2=BMT2298009B.1.2.3,Phases=3,Linecode=CAB202_3_3,Length=0.201840000,Units=km
new line.TR1519175 bus1=BMT2298009B.1.2.3,bus2=BMT2527028B.1.2.3,Phases=3,Linecode=CAB202_3_3,Length=0.140930000,Units=km
new line.TR1519182 bus1=BMT2298016B.1.2.3,bus2=BMT139196061.1.2.3,Phases=3,Linecode=CAB202_3_3,Length=0.110130000,Units=km
new line.TR1519189 bus1=BMT152269098.1.2.3,bus2=BMT152269099.1.2.3,Phases=3,Linecode=CAB103_3_3,Length=0.081220000,Units=km
new line.TR1519196 bus1=BMT2548791B.1.2.3,bus2=BMT152269098.1.2.3,Phases=3,Linecode=CAB202_3_3,Length=0.087930000,Units=km
new line.TR1519203 bus1=BMT167854994.1.2.3,bus2=BMT119816673.1.2.3,Phases=3,Linecode=CAB202_3_3,Length=0.260800000,Units=km
new line.TR1519210 bus1=BMT152269098.1.2.3,bus2=BMT119816715.1.2.3,Phases=3,Linecode=CAB202_3_3,Length=0.073170000,Units=km
new line.TR1519217 bus1=BMT152269104.1.2.3,bus2=BMT2298044B.1.2.3,Phases=3,Linecode=CAB202_3_3,Length=0.069900000,Units=km
new line.TR1519224 bus1=BMT2298044B.1.2.3,bus2=BMT119816967.1.2.3,Phases=3,Linecode=CAB202_3_3,Length=0.093310000,Units=km
new line.TR1519231 bus1=BMT119816967.1.2.3,bus2=BMT119816974.1.2.3,Phases=3,Linecode=CAB202_3_3,Length=0.136490000,Units=km
new line.TR1519238 bus1=BMT119817100.1.2.3,bus2=BMT2298065B.1.2.3,Phases=3,Linecode=CAB202_3_3,Length=0.077790000,Units=km
new line.TR1519245 bus1=BMT119817058.3,bus2=BMT119817065.3,Phases=1,Linecode=CAB202_3_1,Length=0.169210000,Units=km
new line.TR1519252 bus1=BMT119816974.1.2.3,bus2=BMT152269105.1.2.3,Phases=3,Linecode=CAB202_3_3,Length=0.099470000,Units=km
new line.TR1519259 bus1=BMT2298065B.1.2.3,bus2=BMT2548833B.1.2.3,Phases=3,Linecode=CAB202_3_3,Length=0.085160000,Units=km
new line.TR1519266 bus1=BMT119817121.1.2.3,bus2=BMT119817128.1.2.3,Phases=3,Linecode=CAB103_3_3,Length=0.036140000,Units=km
new line.TR1519273 bus1=BMT119817107.1.2.3,bus2=BMT2298079B.1.2.3,Phases=3,Linecode=CAB202_3_3,Length=0.042730000,Units=km
new line.TR1519280 bus1=BMT2548875B.1.2.3,bus2=BMT119817107.1.2.3,Phases=3,Linecode=CAB202_3_3,Length=0.074340000,Units=km
new line.TR1519287 bus1=BMT2298086B.1.2.3,bus2=BMT2526741B.1.2.3,Phases=3,Linecode=CAB202_3_3,Length=0.109210000,Units=km
new line.TR1519294 bus1=BMT2548896B.1.2.3,bus2=BMT2298086B.1.2.3,Phases=3,Linecode=CAB202_3_3,Length=0.118860000,Units=km
new line.TR1519301 bus1=BMT2298093B.1.2.3,bus2=BMT2526762B.1.2.3,Phases=3,Linecode=CAB202_3_3,Length=0.107020000,Units=km
new line.TR1519308 bus1=BMT2298100B.1.2.3,bus2=BMT2526825B.1.2.3,Phases=3,Linecode=CAB202_3_3,Length=0.117060000,Units=km
new line.TR1519315 bus1=BMT119817065.3,bus2=BMT119817072.3,Phases=1,Linecode=CAB202_3_1,Length=0.239030000,Units=km
new line.TR1519322 bus1=BMT119817065.3,bus2=BMT119817079.3,Phases=1,Linecode=CAB202_3_1,Length=0.041240000,Units=km
new line.TR1519329 bus1=BMT152269105.1.2.3,bus2=BMT152269106.1.2.3,Phases=3,Linecode=CAB202_3_3,Length=0.094720000,Units=km
new line.TR1519336 bus1=BMT152269105.1.2.3,bus2=BMT2548903B.1.2.3,Phases=3,Linecode=CAB202_3_3,Length=0.093750000,Units=km
new line.TR1519343 bus1=BMT2548924B.1.2.3,bus2=BMT152269107.1.2.3,Phases=3,Linecode=CAB202_3_3,Length=0.085970000,Units=km
new line.TR1519350 bus1=BMT152269107.1.2.3,bus2=BMT3074897B.1.2.3,Phases=3,Linecode=CAB202_3_3,Length=0.153930000,Units=km
new line.TR1519357 bus1=BMT119817079.3,bus2=BMT119817086.3,Phases=1,Linecode=CAB103_3_1,Length=0.025500000,Units=km
new line.TR1519364 bus1=BMT119817079.3,bus2=BMT119817093.3,Phases=1,Linecode=CAB202_3_1,Length=0.211920000,Units=km
new line.TR1519371 bus1=BMT119816771.3,bus2=BMT119816785.3,Phases=1,Linecode=CAB202_3_1,Length=0.090560000,Units=km
new line.TR1519378 bus1=BMT119816771.1.2.3,bus2=BMT119816792.1.2.3,Phases=3,Linecode=CAB202_3_3,Length=0.235030000,Units=km
new line.TR1519385 bus1=BMT119816876.1.2.3,bus2=BMT119816883.1.2.3,Phases=3,Linecode=CAB103_3_3,Length=0.024740000,Units=km
new line.TR1519392 bus1=BMT119816792.1.2.3,bus2=BMT2537444B.1.2.3,Phases=3,Linecode=CAB202_3_3,Length=0.311040000,Units=km
new line.TR1519399 bus1=BMT119816806.3,bus2=BMT119816813.3,Phases=1,Linecode=CAB202_3_1,Length=0.106080000,Units=km
new line.TR1519406 bus1=BMT119816806.1.2.3,bus2=BMT2537458B.1.2.3,Phases=3,Linecode=CAB202_3_3,Length=0.120120000,Units=km
new line.TR1519413 bus1=BMT2298156B.1.2.3,bus2=BMT2537465B.1.2.3,Phases=3,Linecode=CAB202_3_3,Length=0.087470000,Units=km
new line.TR1519420 bus1=BMT119816820.1.2.3,bus2=BMT2537479B.1.2.3,Phases=3,Linecode=CAB202_3_3,Length=0.068020000,Units=km
new line.TR1519427 bus1=BMT119816820.3,bus2=BMT3758755B.3,Phases=1,Linecode=CAB202_3_1,Length=0.160180000,Units=km
new line.TR1519434 bus1=BMT119816827.1.2.3,bus2=BMT119816841.1.2.3,Phases=3,Linecode=CAB202_3_3,Length=0.252270000,Units=km
new line.TR1519441 bus1=BMT119816827.1.2.3,bus2=BMT119816848.1.2.3,Phases=3,Linecode=CAB202_3_3,Length=0.060880000,Units=km
new line.TR1519448 bus1=BMT119816841.1.2.3,bus2=BMT119816862.1.2.3,Phases=3,Linecode=CAB202_3_3,Length=0.168690000,Units=km
new line.TR1519455 bus1=BMT119816841.1.2.3,bus2=BMT2537493B.1.2.3,Phases=3,Linecode=CAB102_3_3,Length=0.060680000,Units=km
new line.TR1520645 bus1=BMT2298870B.1.2.3,bus2=BMT2298877B.1.2.3,Phases=3,Linecode=CAB108_3_3,Length=0.021100000,Units=km
new line.TR1520652 bus1=BMT2298877B.1.2.3,bus2=BMT119811962.1.2.3,Phases=3,Linecode=CAB108_3_3,Length=0.010000000,Units=km
new line.TR1520666 bus1=BMT167938410.1.2.3,bus2=BMT2298905B.1.2.3,Phases=3,Linecode=CAB202_3_3,Length=0.048670000,Units=km
new line.TR1520673 bus1=BMT2298905B.1.2.3,bus2=BMT2298912B.1.2.3,Phases=3,Linecode=CAB202_3_3,Length=0.107680000,Units=km
new line.TR1520680 bus1=BMT2298912B.1.2.3,bus2=BMT2545053B.1.2.3,Phases=3,Linecode=CAB202_3_3,Length=0.120430000,Units=km
new line.TR1520687 bus1=BMT167938411.1.2.3,bus2=BMT167938412.1.2.3,Phases=3,Linecode=CAB103_3_3,Length=0.023540000,Units=km
new line.TR1520694 bus1=BMT167938411.1.2.3,bus2=BMT2545074B.1.2.3,Phases=3,Linecode=CAB202_3_3,Length=0.114070000,Units=km
new line.TR1520701 bus1=BMT167938413.1.2.3,bus2=BMT167938414.1.2.3,Phases=3,Linecode=CAB202_3_3,Length=0.089030000,Units=km
new line.TR1520708 bus1=BMT167938413.1.2.3,bus2=BMT2545081B.1.2.3,Phases=3,Linecode=CAB202_3_3,Length=0.098500000,Units=km
new line.TR1520715 bus1=BMT167938413.1.2.3,bus2=BMT2545088B.1.2.3,Phases=3,Linecode=CAB202_3_3,Length=0.098500000,Units=km
new line.TR1520722 bus1=BMT119818654.1.2.3,bus2=BMT167938416.1.2.3,Phases=3,Linecode=CAB202_3_3,Length=0.094880000,Units=km
new line.TR1520729 bus1=BMT119818913.1,bus2=BMT119818920.1,Phases=1,Linecode=CAB103_3_1,Length=0.039360000,Units=km
new line.TR1520736 bus1=BMT167938415.1.2.3,bus2=BMT167938423.1.2.3,Phases=3,Linecode=CAB103_3_3,Length=0.018030000,Units=km
new line.TR1520743 bus1=BMT167938415.1.2.3,bus2=BMT167938424.1.2.3,Phases=3,Linecode=CAB202_3_3,Length=0.096570000,Units=km
new line.TR1520750 bus1=BMT167938424.1.2.3,bus2=BMT2545109B.1.2.3,Phases=3,Linecode=CAB202_3_3,Length=0.177350000,Units=km
new line.TR1520757 bus1=BMT167938424.1.2.3,bus2=BMT119818731.1.2.3,Phases=3,Linecode=CAB202_3_3,Length=0.015810000,Units=km
new line.TR1520764 bus1=BMT163010961.1.2.3,bus2=BMT163010962.1.2.3,Phases=3,Linecode=CAB202_3_3,Length=0.100510000,Units=km
new line.TR1520771 bus1=BMT163010961.1.2.3,bus2=BMT2545186B.1.2.3,Phases=3,Linecode=CAB202_3_3,Length=0.079060000,Units=km
new line.TR1520778 bus1=BMT167938425.1.2.3,bus2=BMT119818738.1.2.3,Phases=3,Linecode=CAB202_3_3,Length=0.075010000,Units=km
new line.TR1520785 bus1=BMT167938425.1.2.3,bus2=BMT2545123B.1.2.3,Phases=3,Linecode=CAB103_3_3,Length=0.077630000,Units=km
new line.TR1520792 bus1=BMT119818738.1.2.3,bus2=BMT167938427.1.2.3,Phases=3,Linecode=CAB103_3_3,Length=0.021220000,Units=km
new line.TR1520799 bus1=BMT119818766.1.2.3,bus2=BMT2298975B.1.2.3,Phases=3,Linecode=CAB202_3_3,Length=0.030090000,Units=km
new line.TR1520806 bus1=BMT2298975B.1.2.3,bus2=BMT119818773.1.2.3,Phases=3,Linecode=CAB202_3_3,Length=0.072190000,Units=km
new line.TR1520813 bus1=BMT119818773.1.2.3,bus2=BMT119818780.1.2.3,Phases=3,Linecode=CAB102_3_3,Length=0.078110000,Units=km
new line.TR1520820 bus1=BMT119818773.1.2.3,bus2=BMT119818787.1.2.3,Phases=3,Linecode=CAB202_3_3,Length=0.080420000,Units=km
new line.TR1520827 bus1=BMT119818794.1.2.3,bus2=BMT119818801.1.2.3,Phases=3,Linecode=CAB202_3_3,Length=0.070720000,Units=km
new line.TR1520834 bus1=BMT119818794.1.2.3,bus2=BMT2545144B.1.2.3,Phases=3,Linecode=CAB202_3_3,Length=0.112370000,Units=km
new line.TR1520841 bus1=BMT119818843.1.2.3,bus2=BMT2545221B.1.2.3,Phases=3,Linecode=CAB202_3_3,Length=0.140100000,Units=km
new line.TR1520848 bus1=BMT119818899.1.2.3,bus2=BMT4022340B.1.2.3,Phases=3,Linecode=CAB202_3_3,Length=0.080780000,Units=km
new line.TR1520855 bus1=BMT2299003B.1.2.3,bus2=BMT2545207B.1.2.3,Phases=3,Linecode=CAB202_3_3,Length=0.076160000,Units=km
new line.TR1520862 bus1=BMT163010966.1.2.3,bus2=BMT2545228B.1.2.3,Phases=3,Linecode=CAB202_3_3,Length=0.088470000,Units=km
new line.TR1520869 bus1=BMT163010966.1.2.3,bus2=BMT2545263B.1.2.3,Phases=3,Linecode=CAB202_3_3,Length=0.093010000,Units=km
new line.TR1520876 bus1=BMT163010968.1.2.3,bus2=BMT163010969.1.2.3,Phases=3,Linecode=CAB202_3_3,Length=0.257790000,Units=km
new line.TR1520883 bus1=BMT163010968.1.2.3,bus2=BMT2545291B.1.2.3,Phases=3,Linecode=CAB202_3_3,Length=0.070620000,Units=km
new line.TR1520890 bus1=BMT2299024B.1.2.3,bus2=BMT2545326B.1.2.3,Phases=3,Linecode=CAB202_3_3,Length=0.132810000,Units=km
new line.TR1520897 bus1=BMT167938416.1.2.3,bus2=BMT167938417.1.2.3,Phases=3,Linecode=CAB202_3_3,Length=0.015810000,Units=km
new line.TR1520904 bus1=BMT167938416.2,bus2=BMT167938418.2,Phases=1,Linecode=CAB103_3_1,Length=0.024740000,Units=km
new line.TR1520911 bus1=BMT167938417.1.2.3,bus2=BMT167938419.1.2.3,Phases=3,Linecode=CAB202_3_3,Length=0.015810000,Units=km
new line.TR1520918 bus1=BMT167938417.2,bus2=BMT167938420.2,Phases=1,Linecode=CAB202_3_1,Length=0.060830000,Units=km
new line.TR1520925 bus1=BMT165479068.1.2.3,bus2=BMT2878722B.1.2.3,Phases=3,Linecode=CAB107_3_3,Length=0.039320000,Units=km
new line.TR1520939 bus1=BMT2299059B.1.2.3,bus2=BMT119813775.1.2.3,Phases=3,Linecode=CAB107_3_3,Length=0.031780000,Units=km
new line.TR1520946 bus1=BMT167779888.1.2.3,bus2=BMT167779889.1.2.3,Phases=3,Linecode=CAB103_3_3,Length=0.022360000,Units=km
new line.TR1520953 bus1=BMT119813775.1.2.3,bus2=BMT163466173.1.2.3,Phases=3,Linecode=CAB107_3_3,Length=0.037170000,Units=km
new line.TR1520960 bus1=BMT167779890.3,bus2=BMT167779891.3,Phases=1,Linecode=CAB103_3_1,Length=0.060010000,Units=km
new line.TR1520967 bus1=BMT167779889.1.2.3,bus2=BMT167779890.1.2.3,Phases=3,Linecode=CAB202_3_3,Length=0.060830000,Units=km
new line.TR1520974 bus1=BMT119818255.1.2.3,bus2=BMT119818262.1.2.3,Phases=3,Linecode=CAB103_3_3,Length=0.026250000,Units=km
new line.TR1520981 bus1=BMT119813803.1.2.3,bus2=BMT2545592B.1.2.3,Phases=3,Linecode=CAB207_3_3,Length=0.074680000,Units=km
new line.TR1520988 bus1=BMT119818262.1.2.3,bus2=BMT119818269.1.2.3,Phases=3,Linecode=CAB103_3_3,Length=0.070180000,Units=km
new line.TR1520995 bus1=BMT119818262.1.2.3,bus2=BMT2545578B.1.2.3,Phases=3,Linecode=CAB202_3_3,Length=0.090810000,Units=km
new line.TR1521002 bus1=BMT2299094B.1.2.3,bus2=BMT2545606B.1.2.3,Phases=3,Linecode=CAB207_3_3,Length=0.050250000,Units=km
new line.TR1521009 bus1=BMT159628680.1.2.3,bus2=BMT159628682.1.2.3,Phases=3,Linecode=CAB103_3_3,Length=0.050000000,Units=km
new line.TR1521016 bus1=BMT159628680.1.2.3,bus2=BMT2545627B.1.2.3,Phases=3,Linecode=CAB207_3_3,Length=0.115980000,Units=km
new line.TR1521023 bus1=BMT159628683.1.2.3,bus2=BMT2545641B.1.2.3,Phases=3,Linecode=CAB207_3_3,Length=0.257410000,Units=km
new line.TR1521030 bus1=BMT159628683.1.2.3,bus2=BMT159628685.1.2.3,Phases=3,Linecode=CAB103_3_3,Length=0.059810000,Units=km
new line.TR1521037 bus1=BMT2299115B.1.2.3,bus2=BMT2545648B.1.2.3,Phases=3,Linecode=CAB207_3_3,Length=0.095530000,Units=km
new line.TR1521044 bus1=BMT2299122B.1.2.3,bus2=BMT2545655B.1.2.3,Phases=3,Linecode=CAB207_3_3,Length=0.215070000,Units=km
new line.TR1521058 bus1=BMT157133061.1.2.3,bus2=BMT157133062.1.2.3,Phases=3,Linecode=CAB103_3_3,Length=0.023260000,Units=km
...
