CemigDFeeders/ANAD08/ANAD08Transformadores.dss
new transformer.1059624 Phases=3,Windings=2,Buses=[BMT164600888.1.2.3 BBT164492734.1.2.3.0],Conns=[delta wye],kvs=[13.8 0.22],kvas=[45.000000000 45.000000000],Taps=[1,1.000000000],%loadloss=1.522000000,%noloadloss=0.377777000
new transformer.1075465 Phases=3,Windings=2,Buses=[BMT161496992.1.2.3 BBT140274495.1.2.3.0],Conns=[delta wye],kvs=[13.8 0.22],kvas=[45.000000000 45.000000000],Taps=[1,1.000000000],%loadloss=1.522000000,%noloadloss=0.377777000
new transformer.1076823 Phases=1,Windings=3,Buses=[BMT160705883.1 BBT138745562.1.0 BBT138745562.0.2],Conns=[wye wye wye],kvs=[7.967 0.12 0.12],kvas=[15.000000000 15.000000000 15.000000000],Taps=[1,1.020000000,1.020000000],%loadloss=1.600000000,%noloadloss=0.400000000
new transformer.1120797 Phases=3,Windings=2,Buses=[BMT161919294.1.2.3 BBT148704329.1.2.3.0],Conns=[delta wye],kvs=[13.8 0.22],kvas=[45.000000000 45.000000000],Taps=[1,1.010000000],%loadloss=1.522000000,%noloadloss=0.377777000
new transformer.1120804 Phases=3,Windings=2,Buses=[BMT161919295.1.2.3 BBT148704491.1.2.3.0],Conns=[delta wye],kvs=[13.8 0.22],kvas=[75.000000000 75.000000000],Taps=[1,1.010000000],%loadloss=1.340000000,%noloadloss=0.340000000
new transformer.1120923 Phases=3,Windings=2,Buses=[BMT170083324.1.2.3 BBT147031483.1.2.3.0],Conns=[delta wye],kvs=[13.8 0.22],kvas=[45.000000000 45.000000000],Taps=[1,1.000000000],%loadloss=1.522000000,%noloadloss=0.377777000
new transformer.1120937 Phases=3,Windings=2,Buses=[BMT170083326.1.2.3 BBT147031637.1.2.3.0],Conns=[delta wye],kvs=[13.8 0.22],kvas=[45.000000000 45.000000000],Taps=[1,1.000000000],%loadloss=1.522000000,%noloadloss=0.377777000
new transformer.1120944 Phases=3,Windings=2,Buses=[BMT170083327.1.2.3 BBT147031791.1.2.3.0],Conns=[delta wye],kvs=[13.8 0.22],kvas=[45.000000000 45.000000000],Taps=[1,1.000000000],%loadloss=1.522000000,%noloadloss=0.377777000
new transformer.1409556 Phases=3,Windings=2,Buses=[BMT160609381.1.2.3 BBT152736014.1.2.3.0],Conns=[delta wye],kvs=[13.8 0.22],kvas=[75.000000000 75.000000000],Taps=[1,1.020000000],%loadloss=1.340000000,%noloadloss=0.340000000
new transformer.1414698 Phases=1,Windings=3,Buses=[BMT161338386.3 BBT153800541.1.0 BBT153800541.0.2],Conns=[wye wye wye],kvs=[7.967 0.12 0.12],kvas=[15.000000000 15.000000000 15.000000000],Taps=[1,1.010000000,1.010000000],%loadloss=1.600000000,%noloadloss=0.400000000
new transformer.1425148 Phases=1,Windings=3,Buses=[BMT163010972.1 BBT156136601.1.0 BBT156136601.0.2],Conns=[wye wye wye],kvs=[7.967 0.12 0.12],kvas=[10.000000000 10.000000000 10.000000000],Taps=[1,1.000000000,1.000000000],%loadloss=1.800000000,%noloadloss=0.450000000
new transformer.1451680 Phases=3,Windings=2,Buses=[BMT167813374.1.2.3 BBT162067836.1.2.3.0],Conns=[delta wye],kvs=[13.8 0.22],kvas=[150.000000000 150.000000000],Taps=[1,1.000000000],%loadloss=1.127000000,%noloadloss=0.280000000
new transformer.1457502 Phases=1,Windings=3,Buses=[BMT166240158.3 BBT163800783.1.0 BBT163800783.0.2],Conns=[wye wye wye],kvs=[7.967 0.12 0.12],kvas=[10.000000000 10.000000000 10.000000000],Taps=[1,1.020000000,1.020000000],%loadloss=1.800000000,%noloadloss=0.450000000
new transformer.1479262 Phases=3,Windings=2,Buses=[BMT168467885.1.2.3 BBT167998811.1.2.3.0],Conns=[delta wye],kvs=[13.8 0.22],kvas=[45.000000000 45.000000000],Taps=[1,1.000000000],%loadloss=1.522000000,%noloadloss=0.377777000
new transformer.1479267 Phases=3,Windings=2,Buses=[BMT168467886.1.2.3 BBT167999279.1.2.3.0],Conns=[delta wye],kvs=[13.8 0.22],kvas=[45.000000000 45.000000000],Taps=[1,1.000000000],%loadloss=1.522000000,%noloadloss=0.377777000
new transformer.1479272 Phases=3,Windings=2,Buses=[BMT168467884.1.2.3 BBT167999878.1.2.3.0],Conns=[delta wye],kvs=[13.8 0.22],kvas=[45.000000000 45.000000000],Taps=[1,1.000000000],%loadloss=1.522000000,%noloadloss=0.377777000
new transformer.364574 Phases=3,Windings=2,Buses=[BMT166475828.1.2.3 BBT1609790.1.2.3.0],Conns=[delta wye],kvs=[13.8 0.22],kvas=[45.000000000 45.000000000],Taps=[1,1.000000000],%loadloss=1.522000000,%noloadloss=0.377777000
new transformer.364581 Phases=3,Windings=2,Buses=[BMT153870781.1.2.3 BBT1609923.1.2.3.0],Conns=[delta wye],kvs=[13.8 0.22],kvas=[30.000000000 30.000000000],Taps=[1,1.000000000],%loadloss=1.667000000,%noloadloss=0.433333000
new transformer.364588 Phases=3,Windings=2,Buses=[BMT166475254.1.2.3 BBT1610035.1.2.3.0],Conns=[delta wye],kvs=[13.8 0.22],kvas=[45.000000000 45.000000000],Taps=[1,1.000000000],%loadloss=1.522000000,%noloadloss=0.377777000
new transformer.364595 Phases=3,Windings=2,Buses=[BMT119813047.1.2.3 BBT1610154.1.2.3.0],Conns=[delta wye],kvs=[13.8 0.22],kvas=[45.000000000 45.000000000],Taps=[1,1.000000000],%loadloss=1.522000000,%noloadloss=0.377777000
new transformer.364602 Phases=3,Windings=2,Buses=[BMT119813040.1.2.3 BBT1610252.1.2.3.0],Conns=[delta wye],kvs=[13.8 0.22],kvas=[45.000000000 45.000000000],Taps=[1,1.000000000],%loadloss=1.522000000,%noloadloss=0.377777000
new transformer.364609 Phases=3,Windings=2,Buses=[BMT167600736.1.2.3 BBT1610371.1.2.3.0],Conns=[delta wye],kvs=[13.8 0.22],kvas=[75.000000000 75.000000000],Taps=[1,1.000000000],%loadloss=1.340000000,%noloadloss=0.340000000
new transformer.364623 Phases=3,Windings=2,Buses=[BMT153870787.1.2.3 BBT1610476.1.2.3.0],Conns=[delta wye],kvs=[13.8 0.22],kvas=[30.000000000 30.000000000],Taps=[1,1.000000000],%loadloss=1.667000000,%noloadloss=0.433333000
new transformer.364630 Phases=3,Windings=2,Buses=[BMT119813026.1.2.3 BBT1610574.1.2.3.0],Conns=[delta wye],kvs=[13.8 0.22],kvas=[45.000000000 45.000000000],Taps=[1,1.000000000],%loadloss=1.522000000,%noloadloss=0.377777000
new transformer.364637 Phases=3,Windings=2,Buses=[BMT119813033.1.2.3 BBT1610749.1.2.3.0],Conns=[delta wye],kvs=[13.8 0.22],kvas=[45.000000000 45.000000000],Taps=[1,1.000000000],%loadloss=1.522000000,%noloadloss=0.377777000
new transformer.364644 Phases=3,Windings=2,Buses=[BMT134843951.1.2.3 BBT1610805.1.2.3.0],Conns=[delta wye],kvs=[13.8 0.22],kvas=[75.000000000 75.000000000],Taps=[1,1.020000000],%loadloss=1.340000000,%noloadloss=0.340000000
new transformer.364651 Phases=3,Windings=2,Buses=[BMT170076131.1.2.3 BBT1610819.1.2.3.0],Conns=[delta wye],kvs=[13.8 0.22],kvas=[75.000000000 75.000000000],Taps=[1,1.000000000],%loadloss=1.340000000,%noloadloss=0.340000000
new transformer.364658 Phases=3,Windings=2,Buses=[BMT158879274.1.2.3 BBT1610903.1.2.3.0],Conns=[delta wye],kvs=[13.8 0.22],kvas=[30.000000000 30.000000000],Taps=[1,1.000000000],%loadloss=1.667000000,%noloadloss=0.433333000
new transformer.364672 Phases=3,Windings=2,Buses=[BMT119813012.1.2.3 BBT1610987.1.2.3.0],Conns=[delta wye],kvs=[13.8 0.22],kvas=[75.000000000 75.000000000],Taps=[1,1.000000000],%loadloss=1.340000000,%noloadloss=0.340000000
new transformer.364679 Phases=3,Windings=2,Buses=[BMT165642072.1.2.3 BBT1611085.1.2.3.0],Conns=[delta wye],kvs=[13.8 0.22],kvas=[45.000000000 45.000000000],Taps=[1,1.000000000],%loadloss=1.522000000,%noloadloss=0.377777000
new transformer.364686 Phases=3,Windings=2,Buses=[BMT170083322.1.2.3 BBT1611162.1.2.3.0],Conns=[delta wye],kvs=[13.8 0.22],kvas=[75.000000000 75.000000000],Taps=[1,1.000000000],%loadloss=1.340000000,%noloadloss=0.340000000
new transformer.364693 Phases=3,Windings=2,Buses=[BMT158879272.1.2.3 BBT1611267.1.2.3.0],Conns=[delta wye],kvs=[13.8 0.22],kvas=[30.000000000 30.000000000],Taps=[1,1.000000000],%loadloss=1.667000000,%noloadloss=0.433333000
new transformer.364700 Phases=3,Windings=2,Buses=[BMT158879275.1.2.3 BBT1611351.1.2.3.0],Conns=[delta wye],kvs=[13.8 0.22],kvas=[75.000000000 75.000000000],Taps=[1,1.000000000],%loadloss=1.340000000,%noloadloss=0.340000000
new transformer.364707 Phases=1,Windings=3,Buses=[BMT161496989.2 BBT1611498.1.0 BBT1611498.0.2],Conns=[wye wye wye],kvs=[7.967 0.12 0.12],kvas=[25.000000000 25.000000000 25.000000000],Taps=[1,1.000000000,1.000000000],%loadloss=1.420000000,%noloadloss=0.320000000
new transformer.364714 Phases=1,Windings=3,Buses=[BMT119812368.2 BBT1611568.1.0 BBT1611568.0.2],Conns=[wye wye wye],kvs=[7.967 0.12 0.12],kvas=[25.000000000 25.000000000 25.000000000],Taps=[1,1.000000000,1.000000000],%loadloss=1.420000000,%noloadloss=0.320000000
new transformer.364721 Phases=3,Windings=2,Buses=[BMT170071246.1.2.3 BBT1611652.1.2.3.0],Conns=[delta wye],kvs=[13.8 0.22],kvas=[30.000000000 30.000000000],Taps=[1,1.000000000],%loadloss=1.667000000,%noloadloss=0.433333000
new transformer.364735 Phases=3,Windings=2,Buses=[BMT161496987.1.2.3 BBT1611764.1.2.3.0],Conns=[delta wye],kvs=[13.8 0.22],kvas=[75.000000000 75.000000000],Taps=[1,1.000000000],%loadloss=1.340000000,%noloadloss=0.340000000
new transformer.364742 Phases=3,Windings=2,Buses=[BMT161725755.1.2.3 BBT1611862.1.2.3.0],Conns=[delta wye],kvs=[13.8 0.22],kvas=[45.000000000 45.000000000],Taps=[1,1.000000000],%loadloss=1.522000000,%noloadloss=0.377777000
new transformer.364749 Phases=3,Windings=2,Buses=[BMT160025249.1.2.3 BBT1611967.1.2.3.0],Conns=[delta wye],kvs=[13.8 0.22],kvas=[30.000000000 30.000000000],Taps=[1,1.000000000],%loadloss=1.667000000,%noloadloss=0.433333000
new transformer.364756 Phases=3,Windings=2,Buses=[BMT147030944.1.2.3 BBT1612086.1.2.3.0],Conns=[delta wye],kvs=[13.8 0.22],kvas=[45.000000000 45.000000000],Taps=[1,1.000000000],%loadloss=1.522000000,%noloadloss=0.377777000
new transformer.364763 Phases=3,Windings=2,Buses=[BMT119818535.1.2.3 BBT1612233.1.2.3.0],Conns=[delta wye],kvs=[13.8 0.22],kvas=[75.000000000 75.000000000],Taps=[1,1.000000000],%loadloss=1.340000000,%noloadloss=0.340000000
new transformer.364770 Phases=3,Windings=2,Buses=[BMT161496991.1.2.3 BBT1612331.1.2.3.0],Conns=[delta wye],kvs=[13.8 0.22],kvas=[45.000000000 45.000000000],Taps=[1,1.000000000],%loadloss=1.522000000,%noloadloss=0.377777000
new transformer.364777 Phases=3,Windings=2,Buses=[BMT119818542.1.2.3 BBT1612464.1.2.3.0],Conns=[delta wye],kvs=[13.8 0.22],kvas=[30.000000000 30.000000000],Taps=[1,1.000000000],%loadloss=1.667000000,%noloadloss=0.433333000
new transformer.364784 Phases=3,Windings=2,Buses=[BMT161725750.1.2.3 BBT1612562.1.2.3.0],Conns=[delta wye],kvs=[13.8 0.22],kvas=[45.000000000 45.000000000],Taps=[1,1.000000000],%loadloss=1.522000000,%noloadloss=0.377777000
new transformer.364791 Phases=3,Windings=2,Buses=[BMT168750377.1.2.3 BBT1612688.1.2.3.0],Conns=[delta wye],kvs=[13.8 0.22],kvas=[75.000000000 75.000000000],Taps=[1,1.000000000],%loadloss=1.340000000,%noloadloss=0.340000000
new transformer.1113020 Phases=3,Windings=2,Buses=[BMT160440737.1.2.3 BBT148240205.1.2.3.0],Conns=[delta wye],kvs=[13.8 0.22],kvas=[75.000000000 75.000000000],Taps=[1,1.010000000],%loadloss=1.340000000,%noloadloss=0.340000000
new transformer.1400111 Phases=1,Windings=3,Buses=[BMT166240164.1 BBT150444620.1.0 BBT150444620.0.2],Conns=[wye wye wye],kvs=[7.967 0.12 0.12],kvas=[35.000000000 35.000000000 35.000000000],Taps=[1,1.020000000,1.020000000],%loadloss=1.293000000,%noloadloss=0.342857000
new transformer.1405499 Phases=3,Windings=2,Buses=[BMT170083325.1.2.3 BBT151736322.1.2.3.0],Conns=[delta wye],kvs=[13.8 0.22],kvas=[45.000000000 45.000000000],Taps=[1,1.000000000],%loadloss=1.522000000,%noloadloss=0.377777000
new transformer.1440341 Phases=3,Windings=2,Buses=[BMT159262088.1.2.3 BBT159261127.1.2.3.0],Conns=[delta wye],kvs=[13.8 0.22],kvas=[75.000000000 75.000000000],Taps=[1,1.000000000],%loadloss=1.340000000,%noloadloss=0.340000000
new transformer.365232 Phases=3,Windings=2,Buses=[BMT119813201.1.2.3 BBT1619051.1.2.3.0],Conns=[delta wye],kvs=[13.8 0.22],kvas=[75.000000000 75.000000000],Taps=[1,1.000000000],%loadloss=1.340000000,%noloadloss=0.340000000
new transformer.365239 Phases=3,Windings=2,Buses=[BMT119813369.1.2.3 BBT1619149.1.2.3.0],Conns=[delta wye],kvs=[13.8 0.22],kvas=[45.000000000 45.000000000],Taps=[1,1.000000000],%loadloss=1.522000000,%noloadloss=0.377777000
new transformer.365246 Phases=3,Windings=2,Buses=[BMT166762246.1.2.3 BBT1619296.1.2.3.0],Conns=[delta wye],kvs=[13.8 0.22],kvas=[250.000000000 250.000000000],Taps=[1,1.000000000],%loadloss=0.990000000,%noloadloss=0.280000000
new transformer.365253 Phases=3,Windings=2,Buses=[BMT151733678.1.2.3 BBT1619310.1.2.3.0],Conns=[delta wye],kvs=[13.8 0.22],kvas=[75.000000000 75.000000000],Taps=[1,1.000000000],%loadloss=1.340000000,%noloadloss=0.340000000
new transformer.365260 Phases=3,Windings=2,Buses=[BMT166762247.1.2.3 BBT1619394.1.2.3.0],Conns=[delta wye],kvs=[13.8 0.22],kvas=[45.000000000 45.000000000],Taps=[1,1.000000000],%loadloss=1.522000000,%noloadloss=0.377777000
new transformer.365267 Phases=3,Windings=2,Buses=[BMT165479065.1.2.3 BBT1619457.1.2.3.0],Conns=[delta wye],kvs=[13.8 0.22],kvas=[30.000000000 30.000000000],Taps=[1,1.000000000],%loadloss=1.667000000,%noloadloss=0.433333000
new transformer.365295 Phases=3,Windings=2,Buses=[BMT157690805.1.2.3 BBT1619674.1.2.3.0],Conns=[delta wye],kvs=[13.8 0.22],kvas=[45.000000000 45.000000000],Taps=[1,1.000000000],%loadloss=1.522000000,%noloadloss=0.377777000
new transformer.365330 Phases=3,Windings=2,Buses=[BMT119813362.1.2.3 BBT1620150.1.2.3.0],Conns=[delta wye],kvs=[13.8 0.22],kvas=[30.000000000 30.000000000],Taps=[1,1.000000000],%loadloss=1.667000000,%noloadloss=0.433333000
new transformer.365358 Phases=3,Windings=2,Buses=[BMT165479066.1.2.3 BBT1620570.1.2.3.0],Conns=[delta wye],kvs=[13.8 0.22],kvas=[75.000000000 75.000000000],Taps=[1,1.000000000],%loadloss=1.340000000,%noloadloss=0.340000000
new transformer.365365 Phases=3,Windings=2,Buses=[BMT119813236.1.2.3 BBT1620759.1.2.3.0],Conns=[delta wye],kvs=[13.8 0.22],kvas=[30.000000000 30.000000000],Taps=[1,1.000000000],%loadloss=1.667000000,%noloadloss=0.433333000
new transformer.365379 Phases=3,Windings=2,Buses=[BMT119813229.1.2.3 BBT1621053.1.2.3.0],Conns=[delta wye],kvs=[13.8 0.22],kvas=[30.000000000 30.000000000],Taps=[1,1.000000000],%loadloss=1.667000000,%noloadloss=0.433333000
new transformer.365386 Phases=3,Windings=2,Buses=[BMT165479062.1.2.3 BBT1621144.1.2.3.0],Conns=[delta wye],kvs=[13.8 0.22],kvas=[45.000000000 45.000000000],Taps=[1,1.000000000],%loadloss=1.522000000,%noloadloss=0.377777000
new transformer.365407 Phases=3,Windings=2,Buses=[BMT119813348.1.2.3 BBT1621417.1.2.3.0],Conns=[delta wye],kvs=[13.8 0.22],kvas=[30.000000000 30.000000000],Taps=[1,1.000000000],%loadloss=1.667000000,%noloadloss=0.433333000
new transformer.365421 Phases=3,Windings=2,Buses=[BMT119813481.1.2.3 BBT1621578.1.2.3.0],Conns=[delta wye],kvs=[13.8 0.22],kvas=[75.000000000 75.000000000],Taps=[1,1.000000000],%loadloss=1.340000000,%noloadloss=0.340000000
new transformer.365428 Phases=3,Windings=2,Buses=[BMT119813565.1.2.3 BBT1621641.1.2.3.0],Conns=[delta wye],kvs=[13.8 0.22],kvas=[150.000000000 150.000000000],Taps=[1,1.000000000],%loadloss=1.127000000,%noloadloss=0.280000000
new transformer.365463 Phases=3,Windings=2,Buses=[BMT119813509.1.2.3 BBT1622117.1.2.3.0],Conns=[delta wye],kvs=[13.8 0.22],kvas=[150.000000000 150.000000000],Taps=[1,1.000000000],%loadloss=1.127000000,%noloadloss=0.280000000
new transformer.365477 Phases=3,Windings=2,Buses=[BMT165479063.1.2.3 BBT1622194.1.2.3.0],Conns=[delta wye],kvs=[13.8 0.22],kvas=[75.000000000 75.000000000],Taps=[1,1.000000000],%loadloss=1.340000000,%noloadloss=0.340000000
new transformer.365491 Phases=3,Windings=2,Buses=[BMT152868001.1.2.3 BBT1622432.1.2.3.0],Conns=[delta wye],kvs=[13.8 0.22],kvas=[75.000000000 75.000000000],Taps=[1,1.000000000],%loadloss=1.340000000,%noloadloss=0.340000000
new transformer.365498 Phases=3,Windings=2,Buses=[BMT119813278.1.2.3 BBT1622495.1.2.3.0],Conns=[delta wye],kvs=[13.8 0.22],kvas=[75.000000000 75.000000000],Taps=[1,1.000000000],%loadloss=1.340000000,%noloadloss=0.340000000
new transformer.365505 Phases=3,Windings=2,Buses=[BMT119813285.1.2.3 BBT1622523.1.2.3.0],Conns=[delta wye],kvs=[13.8 0.22],kvas=[75.000000000 75.000000000],Taps=[1,1.000000000],%loadloss=1.340000000,%noloadloss=0.340000000
new transformer.364798 Phases=3,Windings=2,Buses=[BMT170071241.1.2.3 BBT1612842.1.2.3.0],Conns=[delta wye],kvs=[13.8 0.22],kvas=[75.000000000 75.000000000],Taps=[1,1.000000000],%loadloss=1.340000000,%noloadloss=0.340000000
new transformer.364805 Phases=3,Windings=2,Buses=[BMT168750378.1.2.3 BBT1612905.1.2.3.0],Conns=[delta wye],kvs=[13.8 0.22],kvas=[45.000000000 45.000000000],Taps=[1,1.000000000],%loadloss=1.522000000,%noloadloss=0.377777000
new transformer.364812 Phases=3,Windings=2,Buses=[BMT119818514.1.2.3 BBT1612961.1.2.3.0],Conns=[delta wye],kvs=[13.8 0.22],kvas=[45.000000000 45.000000000],Taps=[1,1.000000000],%loadloss=1.522000000,%noloadloss=0.377777000
new transformer.364819 Phases=3,Windings=2,Buses=[BMT170071244.1.2.3 BBT1613164.1.2.3.0],Conns=[delta wye],kvs=[13.8 0.22],kvas=[45.000000000 45.000000000],Taps=[1,1.000000000],%loadloss=1.522000000,%noloadloss=0.377777000
new transformer.364826 Phases=3,Windings=2,Buses=[BMT159262087.1.2.3 BBT1613248.1.2.3.0],Conns=[delta wye],kvs=[13.8 0.22],kvas=[45.000000000 45.000000000],Taps=[1,1.000000000],%loadloss=1.522000000,%noloadloss=0.377777000
new transformer.364833 Phases=3,Windings=2,Buses=[BMT119818598.1.2.3 BBT1613360.1.2.3.0],Conns=[delta wye],kvs=[13.8 0.22],kvas=[45.000000000 45.000000000],Taps=[1,1.000000000],%loadloss=1.522000000,%noloadloss=0.377777000
new transformer.364840 Phases=3,Windings=2,Buses=[BMT119818584.1.2.3 BBT1613430.1.2.3.0],Conns=[delta wye],kvs=[13.8 0.22],kvas=[45.000000000 45.000000000],Taps=[1,1.000000000],%loadloss=1.522000000,%noloadloss=0.377777000
new transformer.364854 Phases=3,Windings=2,Buses=[BMT147030937.1.2.3 BBT1613542.1.2.3.0],Conns=[delta wye],kvs=[13.8 0.22],kvas=[45.000000000 45.000000000],Taps=[1,1.000000000],%loadloss=1.522000000,%noloadloss=0.377777000
new transformer.364861 Phases=3,Windings=2,Buses=[BMT170071245.1.2.3 BBT1613773.1.2.3.0],Conns=[delta wye],kvs=[13.8 0.22],kvas=[75.000000000 75.000000000],Taps=[1,1.000000000],%loadloss=1.340000000,%noloadloss=0.340000000
new transformer.364868 Phases=3,Windings=2,Buses=[BMT170075127.1.2.3 BBT1613808.1.2.3.0],Conns=[delta wye],kvs=[13.8 0.22],kvas=[45.000000000 45.000000000],Taps=[1,1.000000000],%loadloss=1.522000000,%noloadloss=0.377777000
new transformer.364875 Phases=3,Windings=2,Buses=[BMT119818500.1.2.3 BBT1613913.1.2.3.0],Conns=[delta wye],kvs=[13.8 0.22],kvas=[45.000000000 45.000000000],Taps=[1,1.000000000],%loadloss=1.522000000,%noloadloss=0.377777000
new transformer.364882 Phases=3,Windings=2,Buses=[BMT170075130.1.2.3 BBT1614074.1.2.3.0],Conns=[delta wye],kvs=[13.8 0.22],kvas=[30.000000000 30.000000000],Taps=[1,1.000000000],%loadloss=1.667000000,%noloadloss=0.433333000
new transformer.364889 Phases=3,Windings=2,Buses=[BMT170075128.1.2.3 BBT1614165.1.2.3.0],Conns=[delta wye],kvs=[13.8 0.22],kvas=[45.000000000 45.000000000],Taps=[1,1.000000000],%loadloss=1.522000000,%noloadloss=0.377777000
new transformer.364896 Phases=3,Windings=2,Buses=[BMT168750376.1.2.3 BBT1614270.1.2.3.0],Conns=[delta wye],kvs=[13.8 0.22],kvas=[45.000000000 45.000000000],Taps=[1,1.000000000],%loadloss=1.522000000,%noloadloss=0.377777000
new transformer.364910 Phases=3,Windings=2,Buses=[BMT119819200.1.2.3 BBT1614459.1.2.3.0],Conns=[delta wye],kvs=[13.8 0.22],kvas=[75.000000000 75.000000000],Taps=[1,1.000000000],%loadloss=1.340000000,%noloadloss=0.340000000
new transformer.364938 Phases=3,Windings=2,Buses=[BMT170075124.1.2.3 BBT1614886.1.2.3.0],Conns=[delta wye],kvs=[13.8 0.22],kvas=[45.000000000 45.000000000],Taps=[1,1.000000000],%loadloss=1.522000000,%noloadloss=0.377777000
new transformer.364952 Phases=3,Windings=2,Buses=[BMT158862735.1.2.3 BBT1615180.1.2.3.0],Conns=[delta wye],kvs=[13.8 0.22],kvas=[30.000000000 30.000000000],Taps=[1,1.000000000],%loadloss=1.667000000,%noloadloss=0.433333000
new transformer.364959 Phases=3,Windings=2,Buses=[BMT158862736.1.2.3 BBT1615292.1.2.3.0],Conns=[delta wye],kvs=[13.8 0.22],kvas=[75.000000000 75.000000000],Taps=[1,1.000000000],%loadloss=1.340000000,%noloadloss=0.340000000
new transformer.364966 Phases=3,Windings=2,Buses=[BMT158862734.1.2.3 BBT1615467.1.2.3.0],Conns=[delta wye],kvs=[13.8 0.22],kvas=[30.000000000 30.000000000],Taps=[1,1.000000000],%loadloss=1.667000000,%noloadloss=0.433333000
new transformer.364973 Phases=3,Windings=2,Buses=[BMT119818444.1.2.3 BBT1615551.1.2.3.0],Conns=[delta wye],kvs=[13.8 0.22],kvas=[45.000000000 45.000000000],Taps=[1,1.000000000],%loadloss=1.522000000,%noloadloss=0.377777000
new transformer.364987 Phases=3,Windings=2,Buses=[BMT168750322.1.2.3 BBT1615705.1.2.3.0],Conns=[delta wye],kvs=[13.8 0.22],kvas=[75.000000000 75.000000000],Taps=[1,1.000000000],%loadloss=1.340000000,%noloadloss=0.340000000
new transformer.365001 Phases=3,Windings=2,Buses=[BMT119818430.1.2.3 BBT1615817.1.2.3.0],Conns=[delta wye],kvs=[13.8 0.22],kvas=[45.000000000 45.000000000],Taps=[1,1.000000000],%loadloss=1.522000000,%noloadloss=0.377777000
new transformer.365008 Phases=3,Windings=2,Buses=[BMT158862727.1.2.3 BBT1615957.1.2.3.0],Conns=[delta wye],kvs=[13.8 0.22],kvas=[45.000000000 45.000000000],Taps=[1,1.000000000],%loadloss=1.522000000,%noloadloss=0.377777000
new transformer.1074674 Phases=3,Windings=2,Buses=[BMT162257847.1.2.3 BBT139196033.1.2.3.0],Conns=[delta wye],kvs=[13.8 0.22],kvas=[45.000000000 45.000000000],Taps=[1,1.020000000],%loadloss=1.522000000,%noloadloss=0.377777000
new transformer.1410060 Phases=3,Windings=2,Buses=[BMT152872038.1.2.3 BBT152842325.1.2.3.0],Conns=[delta wye],kvs=[13.8 0.22],kvas=[45.000000000 45.000000000],Taps=[1,1.020000000],%loadloss=1.522000000,%noloadloss=0.377777000
new transformer.1410178 Phases=3,Windings=2,Buses=[BMT152868000.1.2.3 BBT152868002.1.2.3.0],Conns=[delta wye],kvs=[13.8 0.22],kvas=[150.000000000 150.000000000],Taps=[1,1.000000000],%loadloss=1.127000000,%noloadloss=0.280000000
new transformer.1426032 Phases=1,Windings=3,Buses=[BMT165051925.1 BBT156358928.1.0 BBT156358928.0.2],Conns=[wye wye wye],kvs=[7.967 0.12 0.12],kvas=[10.000000000 10.000000000 10.000000000],Taps=[1,1.020000000,1.020000000],%loadloss=1.800000000,%noloadloss=0.450000000
new transformer.364504 Phases=3,Windings=2,Buses=[BMT153870785.1.2.3 BBT1608782.1.2.3.0],Conns=[delta wye],kvs=[13.8 0.22],kvas=[30.000000000 30.000000000],Taps=[1,1.000000000],%loadloss=1.667000000,%noloadloss=0.433333000
new transformer.364511 Phases=1,Windings=3,Buses=[BMT151051835.1 BBT1608929.1.0 BBT1608929.0.2],Conns=[wye wye wye],kvs=[7.967 0.12 0.12],kvas=[25.000000000 25.000000000 25.000000000],Taps=[1,1.000000000,1.000000000],%loadloss=1.420000000,%noloadloss=0.320000000
new transformer.364525 Phases=3,Windings=2,Buses=[BMT153870782.1.2.3 BBT1608957.1.2.3.0],Conns=[delta wye],kvs=[13.8 0.22],kvas=[75.000000000 75.000000000],Taps=[1,1.000000000],%loadloss=1.340000000,%noloadloss=0.340000000
new transformer.364532 Phases=3,Windings=2,Buses=[BMT153870783.1.2.3 BBT1609048.1.2.3.0],Conns=[delta wye],kvs=[13.8 0.22],kvas=[75.000000000 75.000000000],Taps=[1,1.000000000],%loadloss=1.340000000,%noloadloss=0.340000000
new transformer.364539 Phases=3,Windings=2,Buses=[BMT157828938.1.2.3 BBT1609181.1.2.3.0],Conns=[delta wye],kvs=[13.8 0.22],kvas=[45.000000000 45.000000000],Taps=[1,1.000000000],%loadloss=1.522000000,%noloadloss=0.377777000
new transformer.364546 Phases=3,Windings=2,Buses=[BMT170081607.1.2.3 BBT1609328.1.2.3.0],Conns=[delta wye],kvs=[13.8 0.22],kvas=[100.000000000 100.000000000],Taps=[1,1.000000000],%loadloss=1.218000000,%noloadloss=0.335000000
new transformer.364553 Phases=3,Windings=2,Buses=[BMT153870784.1.2.3 BBT1609426.1.2.3.0],Conns=[delta wye],kvs=[13.8 0.22],kvas=[30.000000000 30.000000000],Taps=[1,1.000000000],%loadloss=1.667000000,%noloadloss=0.433333000
new transformer.364560 Phases=3,Windings=2,Buses=[BMT168467677.1.2.3 BBT1609538.1.2.3.0],Conns=[delta wye],kvs=[13.8 0.22],kvas=[30.000000000 30.000000000],Taps=[1,1.000000000],%loadloss=1.667000000,%noloadloss=0.433333000
new transformer.364567 Phases=3,Windings=2,Buses=[BMT166475253.1.2.3 BBT1609622.1.2.3.0],Conns=[delta wye],kvs=[13.8 0.22],kvas=[75.000000000 75.000000000],Taps=[1,1.000000000],%loadloss=1.340000000,%noloadloss=0.340000000
new transformer.379505 Phases=1,Windings=3,Buses=[BMT119817933.1 BBT1696065.1.0 BBT1696065.0.2],Conns=[wye wye wye],kvs=[7.967 0.12 0.12],kvas=[10.000000000 10.000000000 10.000000000],Taps=[1,1.010000000,1.010000000],%loadloss=1.800000000,%noloadloss=0.450000000
new transformer.379512 Phases=1,Windings=3,Buses=[BMT119818213.1 BBT1696079.1.0 BBT1696079.0.2],Conns=[wye wye wye],kvs=[7.967 0.12 0.12],kvas=[15.000000000 15.000000000 15.000000000],Taps=[1,1.000000000,1.000000000],%loadloss=1.600000000,%noloadloss=0.400000000
new transformer.379519 Phases=1,Windings=3,Buses=[BMT163292926.3 BBT1696093.1.0 BBT1696093.0.2],Conns=[wye wye wye],kvs=[7.967 0.12 0.12],kvas=[10.000000000 10.000000000 10.000000000],Taps=[1,1.010000000,1.010000000],%loadloss=1.800000000,%noloadloss=0.450000000
new transformer.379526 Phases=1,Windings=3,Buses=[BMT163292922.3 BBT1696107.1.0 BBT1696107.0.2],Conns=[wye wye wye],kvs=[7.967 0.12 0.12],kvas=[10.000000000 10.000000000 10.000000000],Taps=[1,1.010000000,1.010000000],%loadloss=1.800000000,%noloadloss=0.450000000
new transformer.379533 Phases=1,Windings=3,Buses=[BMT163292928.3 BBT1696121.1.0 BBT1696121.0.2],Conns=[wye wye wye],kvs=[7.967 0.12 0.12],kvas=[5.000000000 5.000000000 5.000000000],Taps=[1,1.010000000,1.010000000],%loadloss=1.900000000,%noloadloss=0.600000000
new transformer.379540 Phases=3,Windings=2,Buses=[BMT119817506.1.2.3 BBT1696135.1.2.3.0],Conns=[delta wye],kvs=[13.8 0.22],kvas=[75.000000000 75.000000000],Taps=[1,1.010000000],%loadloss=1.340000000,%noloadloss=0.340000000
new transformer.379743 Phases=1,Windings=3,Buses=[BMT162974698.1 BBT1696541.1.0 BBT1696541.0.2],Conns=[wye wye wye],kvs=[7.967 0.12 0.12],kvas=[15.000000000 15.000000000 15.000000000],Taps=[1,1.020000000,1.020000000],%loadloss=1.600000000,%noloadloss=0.400000000
new transformer.379750 Phases=1,Windings=3,Buses=[BMT162974697.1 BBT1696555.1.0 BBT1696555.0.2],Conns=[wye wye wye],kvs=[7.967 0.12 0.12],kvas=[15.000000000 15.000000000 15.000000000],Taps=[1,1.020000000,1.020000000],%loadloss=1.600000000,%noloadloss=0.400000000
new transformer.379757 Phases=1,Windings=3,Buses=[BMT162974695.1 BBT1696569.1.0 BBT1696569.0.2],Conns=[wye wye wye],kvs=[7.967 0.12 0.12],kvas=[15.000000000 15.000000000 15.000000000],Taps=[1,1.031000000,1.031000000],%loadloss=1.600000000,%noloadloss=0.400000000
new transformer.379764 Phases=1,Windings=3,Buses=[BMT152011904.1 BBT1696583.1.0 BBT1696583.0.2],Conns=[wye wye wye],kvs=[7.967 0.12 0.12],kvas=[15.000000000 15.000000000 15.000000000],Taps=[1,1.031000000,1.031000000],%loadloss=1.600000000,%noloadloss=0.400000000
new transformer.365533 Phases=3,Windings=2,Buses=[BMT119813558.1.2.3 BBT1622817.1.2.3.0],Conns=[delta wye],kvs=[13.8 0.22],kvas=[45.000000000 45.000000000],Taps=[1,1.000000000],%loadloss=1.522000000,%noloadloss=0.377777000
new transformer.365540 Phases=3,Windings=2,Buses=[BMT119813523.1.2.3 BBT1622915.1.2.3.0],Conns=[delta wye],kvs=[13.8 0.22],kvas=[75.000000000 75.000000000],Taps=[1,1.000000000],%loadloss=1.340000000,%noloadloss=0.340000000
new transformer.365554 Phases=3,Windings=2,Buses=[BMT165479055.1.2.3 BBT1623139.1.2.3.0],Conns=[delta wye],kvs=[13.8 0.22],kvas=[75.000000000 75.000000000],Taps=[1,1.000000000],%loadloss=1.340000000,%noloadloss=0.340000000
new transformer.365561 Phases=3,Windings=2,Buses=[BMT165479059.1.2.3 BBT1623195.1.2.3.0],Conns=[delta wye],kvs=[13.8 0.22],kvas=[45.000000000 45.000000000],Taps=[1,1.000000000],%loadloss=1.522000000,%noloadloss=0.377777000
new transformer.365575 Phases=3,Windings=2,Buses=[BMT119818395.1.2.3 BBT1623363.1.2.3.0],Conns=[delta wye],kvs=[13.8 0.22],kvas=[45.000000000 45.000000000],Taps=[1,1.000000000],%loadloss=1.522000000,%noloadloss=0.377777000
new transformer.365617 Phases=3,Windings=2,Buses=[BMT119818402.1.2.3 BBT1623958.1.2.3.0],Conns=[delta wye],kvs=[13.8 0.22],kvas=[45.000000000 45.000000000],Taps=[1,1.000000000],%loadloss=1.522000000,%noloadloss=0.377777000
new transformer.365638 Phases=3,Windings=2,Buses=[BMT165479060.1.2.3 BBT1624308.1.2.3.0],Conns=[delta wye],kvs=[13.8 0.22],kvas=[75.000000000 75.000000000],Taps=[1,1.000000000],%loadloss=1.340000000,%noloadloss=0.340000000
new transformer.365645 Phases=3,Windings=2,Buses=[BMT165479056.1.2.3 BBT1624378.1.2.3.0],Conns=[delta wye],kvs=[13.8 0.22],kvas=[75.000000000 75.000000000],Taps=[1,1.000000000],%loadloss=1.340000000,%noloadloss=0.340000000
new transformer.365680 Phases=3,Windings=2,Buses=[BMT165479061.1.2.3 BBT1624826.1.2.3.0],Conns=[delta wye],kvs=[13.8 0.22],kvas=[45.000000000 45.000000000],Taps=[1,1.000000000],%loadloss=1.522000000,%noloadloss=0.377777000
new transformer.383831 Phases=3,Windings=2,Buses=[BMT160440743.1.2.3 BBT1707748.1.2.3.0],Conns=[delta wye],kvs=[13.8 0.22],kvas=[45.000000000 45.000000000],Taps=[1,1.010000000],%loadloss=1.522000000,%noloadloss=0.377777000
new transformer.383845 Phases=1,Windings=3,Buses=[BMT119817359.2 BBT1707776.1.0 BBT1707776.0.2],Conns=[wye wye wye],kvs=[7.967 0.12 0.12],kvas=[5.000000000 5.000000000 5.000000000],Taps=[1,1.010000000,1.010000000],%loadloss=1.900000000,%noloadloss=0.600000000
new transformer.383852 Phases=1,Windings=3,Buses=[BMT119817366.2 BBT1707790.1.0 BBT1707790.0.2],Conns=[wye wye wye],kvs=[7.967 0.12 0.12],kvas=[15.000000000 15.000000000 15.000000000],Taps=[1,1.010000000,1.010000000],%loadloss=1.600000000,%noloadloss=0.400000000
new transformer.383859 Phases=3,Windings=2,Buses=[BMT139578436.1.2.3 BBT1707804.1.2.3.0],Conns=[delta wye],kvs=[13.8 0.22],kvas=[75.000000000 75.000000000],Taps=[1,1.010000000],%loadloss=1.340000000,%noloadloss=0.340000000
new transformer.383866 Phases=1,Windings=3,Buses=[BMT165517884.1 BBT1707818.1.0 BBT1707818.0.2],Conns=[wye wye wye],kvs=[7.967 0.12 0.12],kvas=[10.000000000 10.000000000 10.000000000],Taps=[1,1.010000000,1.010000000],%loadloss=1.800000000,%noloadloss=0.450000000
new transformer.383873 Phases=1,Windings=3,Buses=[BMT119817380.2 BBT1707832.1.0 BBT1707832.0.2],Conns=[wye wye wye],kvs=[7.967 0.12 0.12],kvas=[5.000000000 5.000000000 5.000000000],Taps=[1,1.010000000,1.010000000],%loadloss=1.900000000,%noloadloss=0.600000000
new transformer.383880 Phases=1,Windings=3,Buses=[BMT167854979.3 BBT1707846.1.0 BBT1707846.0.2],Conns=[wye wye wye],kvs=[7.967 0.12 0.12],kvas=[10.000000000 10.000000000 10.000000000],Taps=[1,1.010000000,1.010000000],%loadloss=1.800000000,%noloadloss=0.450000000
new transformer.383887 Phases=3,Windings=2,Buses=[BMT157084498.1.2.3 BBT1707860.1.2.3.0],Conns=[delta wye],kvs=[13.8 0.22],kvas=[45.000000000 45.000000000],Taps=[1,1.010000000],%loadloss=1.522000000,%noloadloss=0.377777000
new transformer.383894 Phases=3,Windings=2,Buses=[BMT167854982.1.2.3 BBT1707874.1.2.3.0],Conns=[delta wye],kvs=[13.8 0.22],kvas=[30.000000000 30.000000000],Taps=[1,1.010000000],%loadloss=1.667000000,%noloadloss=0.433333000
new transformer.383901 Phases=1,Windings=3,Buses=[BMT167854985.3 BBT1707888.1.0 BBT1707888.0.2],Conns=[wye wye wye],kvs=[7.967 0.12 0.12],kvas=[10.000000000 10.000000000 10.000000000],Taps=[1,1.010000000,1.010000000],%loadloss=1.800000000,%noloadloss=0.450000000
new transformer.383908 Phases=3,Windings=2,Buses=[BMT167854987.1.2.3 BBT1707902.1.2.3.0],Conns=[delta wye],kvs=[13.8 0.22],kvas=[30.000000000 30.000000000],Taps=[1,1.010000000],%loadloss=1.667000000,%noloadloss=0.433333000
new transformer.383915 Phases=3,Windings=2,Buses=[BMT119817142.1.2.3 BBT1707916.1.2.3.0],Conns=[delta wye],kvs=[13.8 0.22],kvas=[30.000000000 30.000000000],Taps=[1,1.020000000],%loadloss=1.667000000,%noloadloss=0.433333000
new transformer.383922 Phases=3,Windings=2,Buses=[BMT167854991.1.2.3 BBT1707930.1.2.3.0],Conns=[delta wye],kvs=[13.8 0.22],kvas=[15.000000000 15.000000000],Taps=[1,1.020000000],%loadloss=1.967000000,%noloadloss=0.500000000
new transformer.383929 Phases=1,Windings=3,Buses=[BMT167854993.2 BBT1707944.1.0 BBT1707944.0.2],Conns=[wye wye wye],kvs=[7.967 0.12 0.12],kvas=[5.000000000 5.000000000 5.000000000],Taps=[1,1.010000000,1.010000000],%loadloss=1.900000000,%noloadloss=0.600000000
new transformer.1001083 Phases=1,Windings=3,Buses=[BMT163850122.1 BBT100815376.1.0 BBT100815376.0.2],Conns=[wye wye wye],kvs=[7.967 0.12 0.12],kvas=[5.000000000 5.000000000 5.000000000],Taps=[1,1.010000000,1.010000000],%loadloss=1.900000000,%noloadloss=0.600000000
new transformer.1411596 Phases=1,Windings=3,Buses=[BMT162974689.1 BBT153172098.1.0 BBT153172098.0.2],Conns=[wye wye wye],kvs=[7.967 0.12 0.12],kvas=[15.000000000 15.000000000 15.000000000],Taps=[1,1.020000000,1.020000000],%loadloss=1.600000000,%noloadloss=0.400000000
new transformer.1416837 Phases=1,Windings=3,Buses=[BMT161338388.3 BBT154365060.1.0 BBT154365060.0.2],Conns=[wye wye wye],kvs=[7.967 0.12 0.12],kvas=[15.000000000 15.000000000 15.000000000],Taps=[1,1.010000000,1.010000000],%loadloss=1.600000000,%noloadloss=0.400000000
new transformer.1432772 Phases=3,Windings=2,Buses=[BMT168750372.1.2.3 BBT157766798.1.2.3.0],Conns=[delta wye],kvs=[13.8 0.22],kvas=[45.000000000 45.000000000],Taps=[1,1.000000000],%loadloss=1.522000000,%noloadloss=0.377777000
new transformer.1432790 Phases=3,Windings=2,Buses=[BMT162974512.1.2.3 BBT157769963.1.2.3.0],Conns=[delta wye],kvs=[13.8 0.22],kvas=[45.000000000 45.000000000],Taps=[1,1.031000000],%loadloss=1.522000000,%noloadloss=0.377777000
new transformer.1437818 Phases=3,Windings=2,Buses=[BMT158862737.1.2.3 BBT158710897.1.2.3.0],Conns=[delta wye],kvs=[13.8 0.22],kvas=[75.000000000 75.000000000],Taps=[1,1.000000000],%loadloss=1.340000000,%noloadloss=0.340000000
new transformer.1443581 Phases=1,Windings=3,Buses=[BMT160440746.3 BBT159899220.1.0 BBT159899220.0.2],Conns=[wye wye wye],kvs=[7.967 0.12 0.12],kvas=[10.000000000 10.000000000 10.000000000],Taps=[1,1.010000000,1.010000000],%loadloss=1.800000000,%noloadloss=0.450000000
new transformer.1455696 Phases=1,Windings=3,Buses=[BMT163292930.3 BBT163292950.1.0 BBT163292950.0.2],Conns=[wye wye wye],kvs=[7.967 0.12 0.12],kvas=[10.000000000 10.000000000 10.000000000],Taps=[1,1.010000000,1.010000000],%loadloss=1.800000000,%noloadloss=0.450000000
new transformer.1472157 Phases=1,Windings=3,Buses=[BMT166763417.2 BBT166763439.1.0 BBT166763439.0.2],Conns=[wye wye wye],kvs=[7.967 0.12 0.12],kvas=[10.000000000 10.000000000 10.000000000],Taps=[1,1.010000000,1.010000000],%loadloss=1.800000000,%noloadloss=0.450000000
new transformer.383285 Phases=3,Windings=2,Buses=[BMT145674974.1.2.3 BBT1706656.1.2.3.0],Conns=[delta wye],kvs=[13.8 0.22],kvas=[75.000000000 75.000000000],Taps=[1,1.020000000],%loadloss=1.340000000,%noloadloss=0.340000000
new transformer.383299 Phases=1,Windings=3,Buses=[BMT152011906.1 BBT1706684.1.0 BBT1706684.0.2],Conns=[wye wye wye],kvs=[7.967 0.12 0.12],kvas=[5.000000000 5.000000000 5.000000000],Taps=[1,1.031000000,1.031000000],%loadloss=1.900000000,%noloadloss=0.600000000
new transformer.383306 Phases=1,Windings=3,Buses=[BMT152011911.1 BBT1706698.1.0 BBT1706698.0.2],Conns=[wye wye wye],kvs=[7.967 0.12 0.12],kvas=[25.000000000 25.000000000 25.000000000],Taps=[1,1.031000000,1.031000000],%loadloss=1.420000000,%noloadloss=0.320000000
new transformer.383313 Phases=1,Windings=3,Buses=[BMT152011909.1 BBT1706712.1.0 BBT1706712.0.2],Conns=[wye wye wye],kvs=[7.967 0.12 0.12],kvas=[15.000000000 15.000000000 15.000000000],Taps=[1,1.031000000,1.031000000],%loadloss=1.600000000,%noloadloss=0.400000000
new transformer.383327 Phases=1,Windings=3,Buses=[BMT166240156.1 BBT1706740.1.0 BBT1706740.0.2],Conns=[wye wye wye],kvs=[7.967 0.12 0.12],kvas=[10.000000000 10.000000000 10.000000000],Taps=[1,1.020000000,1.020000000],%loadloss=1.800000000,%noloadloss=0.450000000
new transformer.383334 Phases=1,Windings=3,Buses=[BMT166240160.2 BBT1706754.1.0 BBT1706754.0.2],Conns=[wye wye wye],kvs=[7.967 0.12 0.12],kvas=[10.000000000 10.000000000 10.000000000],Taps=[1,1.020000000,1.020000000],%loadloss=1.800000000,%noloadloss=0.450000000
new transformer.383341 Phases=1,Windings=3,Buses=[BMT119814860.2 BBT1706768.1.0 BBT1706768.0.2],Conns=[wye wye wye],kvs=[7.967 0.12 0.12],kvas=[5.000000000 5.000000000 5.000000000],Taps=[1,1.020000000,1.020000000],%loadloss=1.900000000,%noloadloss=0.600000000
new transformer.383348 Phases=1,Windings=3,Buses=[BMT119814888.2 BBT1706782.1.0 BBT1706782.0.2],Conns=[wye wye wye],kvs=[7.967 0.12 0.12],kvas=[5.000000000 5.000000000 5.000000000],Taps=[1,1.020000000,1.020000000],%loadloss=1.900000000,%noloadloss=0.600000000
new transformer.383355 Phases=3,Windings=2,Buses=[BMT134843993.1.2.3 BBT1706796.1.2.3.0],Conns=[delta wye],kvs=[13.8 0.22],kvas=[45.000000000 45.000000000],Taps=[1,1.020000000],%loadloss=1.522000000,%noloadloss=0.377777000
new transformer.383362 Phases=3,Windings=2,Buses=[BMT166240161.1.2.3 BBT1706810.1.2.3.0],Conns=[delta wye],kvs=[13.8 0.22],kvas=[75.000000000 75.000000000],Taps=[1,1.020000000],%loadloss=1.340000000,%noloadloss=0.340000000
new transformer.383369 Phases=3,Windings=2,Buses=[BMT152398788.1.2.3 BBT1706824.1.2.3.0],Conns=[delta wye],kvs=[13.8 0.22],kvas=[15.000000000 15.000000000],Taps=[1,1.020000000],%loadloss=1.967000000,%noloadloss=0.500000000
new transformer.383376 Phases=3,Windings=2,Buses=[BMT150444443.1.2.3 BBT1706838.1.2.3.0],Conns=[delta wye],kvs=[13.8 0.22],kvas=[45.000000000 45.000000000],Taps=[1,1.020000000],%loadloss=1.522000000,%noloadloss=0.377777000
new transformer.383383 Phases=3,Windings=2,Buses=[BMT157888685.1.2.3 BBT1706852.1.2.3.0],Conns=[delta wye],kvs=[13.8 0.22],kvas=[75.000000000 75.000000000],Taps=[1,1.020000000],%loadloss=1.340000000,%noloadloss=0.340000000
new transformer.383390 Phases=1,Windings=3,Buses=[BMT150444444.3 BBT1706866.1.0 BBT1706866.0.2],Conns=[wye wye wye],kvs=[7.967 0.12 0.12],kvas=[10.000000000 10.000000000 10.000000000],Taps=[1,1.020000000,1.020000000],%loadloss=1.800000000,%noloadloss=0.450000000
new transformer.383397 Phases=3,Windings=2,Buses=[BMT119814825.1.2.3 BBT1706880.1.2.3.0],Conns=[delta wye],kvs=[13.8 0.22],kvas=[75.000000000 75.000000000],Taps=[1,1.020000000],%loadloss=1.340000000,%noloadloss=0.340000000
new transformer.383411 Phases=3,Windings=2,Buses=[BMT152398792.1.2.3 BBT1706908.1.2.3.0],Conns=[delta wye],kvs=[13.8 0.22],kvas=[30.000000000 30.000000000],Taps=[1,1.020000000],%loadloss=1.667000000,%noloadloss=0.433333000
new transformer.383418 Phases=3,Windings=2,Buses=[BMT152398790.1.2.3 BBT1706922.1.2.3.0],Conns=[delta wye],kvs=[13.8 0.22],kvas=[15.000000000 15.000000000],Taps=[1,1.020000000],%loadloss=1.967000000,%noloadloss=0.500000000
new transformer.383432 Phases=3,Windings=2,Buses=[BMT152398793.1.2.3 BBT1706950.1.2.3.0],Conns=[delta wye],kvs=[13.8 0.22],kvas=[75.000000000 75.000000000],Taps=[1,1.020000000],%loadloss=1.340000000,%noloadloss=0.340000000
new transformer.383439 Phases=3,Windings=2,Buses=[BMT161064229.1.2.3 BBT1706964.1.2.3.0],Conns=[delta wye],kvs=[13.8 0.22],kvas=[45.000000000 45.000000000],Taps=[1,1.020000000],%loadloss=1.522000000,%noloadloss=0.377777000
new transformer.383446 Phases=3,Windings=2,Buses=[BMT151807036.1.2.3 BBT1706978.1.2.3.0],Conns=[delta wye],kvs=[13.8 0.22],kvas=[75.000000000 75.000000000],Taps=[1,1.020000000],%loadloss=1.340000000,%noloadloss=0.340000000
new transformer.383453 Phases=3,Windings=2,Buses=[BMT151807037.1.2.3 BBT1706992.1.2.3.0],Conns=[delta wye],kvs=[13.8 0.22],kvas=[75.000000000 75.000000000],Taps=[1,1.020000000],%loadloss=1.340000000,%noloadloss=0.340000000
new transformer.383467 Phases=3,Windings=2,Buses=[BMT161919303.1.2.3 BBT1707020.1.2.3.0],Conns=[delta wye],kvs=[13.8 0.22],kvas=[30.000000000 30.000000000],Taps=[1,1.020000000],%loadloss=1.667000000,%noloadloss=0.433333000
new transformer.383474 Phases=1,Windings=3,Buses=[BMT161919301.3 BBT1707034.1.0 BBT1707034.0.2],Conns=[wye wye wye],kvs=[7.967 0.12 0.12],kvas=[15.000000000 15.000000000 15.000000000],Taps=[1,1.010000000,1.010000000],%loadloss=1.600000000,%noloadloss=0.400000000
new transformer.383481 Phases=1,Windings=3,Buses=[BMT119815518.1 BBT1707048.1.0 BBT1707048.0.2],Conns=[wye wye wye],kvs=[7.967 0.12 0.12],kvas=[10.000000000 10.000000000 10.000000000],Taps=[1,1.020000000,1.020000000],%loadloss=1.800000000,%noloadloss=0.450000000
new transformer.383488 Phases=3,Windings=2,Buses=[BMT160277348.1.2.3 BBT1707062.1.2.3.0],Conns=[delta wye],kvs=[13.8 0.22],kvas=[45.000000000 45.000000000],Taps=[1,1.031000000],%loadloss=1.522000000,%noloadloss=0.377777000
new transformer.383502 Phases=3,Windings=2,Buses=[BMT156062899.1.2.3 BBT1707090.1.2.3.0],Conns=[delta wye],kvs=[13.8 0.22],kvas=[30.000000000 30.000000000],Taps=[1,1.031000000],%loadloss=1.667000000,%noloadloss=0.433333000
new transformer.383509 Phases=3,Windings=2,Buses=[BMT156062900.1.2.3 BBT1707104.1.2.3.0],Conns=[delta wye],kvs=[13.8 0.22],kvas=[75.000000000 75.000000000],Taps=[1,1.031000000],%loadloss=1.340000000,%noloadloss=0.340000000
new transformer.383516 Phases=3,Windings=2,Buses=[BMT119815203.1.2.3 BBT1707118.1.2.3.0],Conns=[delta wye],kvs=[13.8 0.22],kvas=[30.000000000 30.000000000],Taps=[1,1.031000000],%loadloss=1.667000000,%noloadloss=0.433333000
new transformer.383530 Phases=1,Windings=3,Buses=[BMT119815252.1 BBT1707146.1.0 BBT1707146.0.2],Conns=[wye wye wye],kvs=[7.967 0.12 0.12],kvas=[10.000000000 10.000000000 10.000000000],Taps=[1,1.031000000,1.031000000],%loadloss=1.800000000,%noloadloss=0.450000000
new transformer.383537 Phases=3,Windings=2,Buses=[BMT166762406.1.2.3 BBT1707160.1.2.3.0],Conns=[delta wye],kvs=[13.8 0.22],kvas=[30.000000000 30.000000000],Taps=[1,1.010000000],%loadloss=1.667000000,%noloadloss=0.433333000
new transformer.383544 Phases=3,Windings=2,Buses=[BMT166762405.1.2.3 BBT1707174.1.2.3.0],Conns=[delta wye],kvs=[13.8 0.22],kvas=[15.000000000 15.000000000],Taps=[1,1.010000000],%loadloss=1.967000000,%noloadloss=0.500000000
new transformer.383551 Phases=3,Windings=2,Buses=[BMT166762449.1.2.3 BBT1707188.1.2.3.0],Conns=[delta wye],kvs=[13.8 0.22],kvas=[15.000000000 15.000000000],Taps=[1,1.010000000],%loadloss=1.967000000,%noloadloss=0.500000000
new transformer.383579 Phases=3,Windings=2,Buses=[BMT119818052.1.2.3 BBT1707244.1.2.3.0],Conns=[delta wye],kvs=[13.8 0.22],kvas=[30.000000000 30.000000000],Taps=[1,1.010000000],%loadloss=1.667000000,%noloadloss=0.433333000
new transformer.383586 Phases=3,Windings=2,Buses=[BMT161458770.1.2.3 BBT1707258.1.2.3.0],Conns=[delta wye],kvs=[13.8 0.22],kvas=[45.000000000 45.000000000],Taps=[1,1.010000000],%loadloss=1.522000000,%noloadloss=0.377777000
new transformer.383600 Phases=3,Windings=2,Buses=[BMT119817975.1.2.3 BBT1707286.1.2.3.0],Conns=[delta wye],kvs=[13.8 0.22],kvas=[15.000000000 15.000000000],Taps=[1,1.010000000],%loadloss=1.967000000,%noloadloss=0.500000000
new transformer.383607 Phases=3,Windings=2,Buses=[BMT119817954.1.2.3 BBT1707300.1.2.3.0],Conns=[delta wye],kvs=[13.8 0.22],kvas=[15.000000000 15.000000000],Taps=[1,1.010000000],%loadloss=1.967000000,%noloadloss=0.500000000
new transformer.383936 Phases=3,Windings=2,Buses=[BMT152269110.1.2.3 BBT1707958.1.2.3.0],Conns=[delta wye],kvs=[13.8 0.22],kvas=[30.000000000 30.000000000],Taps=[1,1.020000000],%loadloss=1.667000000,%noloadloss=0.433333000
new transformer.384167 Phases=3,Windings=2,Buses=[BMT157133062.1.2.3 BBT1708476.1.2.3.0],Conns=[delta wye],kvs=[13.8 0.22],kvas=[15.000000000 15.000000000],Taps=[1,1.000000000],%loadloss=1.967000000,%noloadloss=0.500000000
new transformer.384174 Phases=3,Windings=2,Buses=[BMT159628686.1.2.3 BBT1708490.1.2.3.0],Conns=[delta wye],kvs=[13.8 0.22],kvas=[75.000000000 75.000000000],Taps=[1,1.000000000],%loadloss=1.340000000,%noloadloss=0.340000000
new transformer.384181 Phases=3,Windings=2,Buses=[BMT119818381.1.2.3 BBT1708504.1.2.3.0],Conns=[delta wye],kvs=[13.8 0.22],kvas=[45.000000000 45.000000000],Taps=[1,1.000000000],%loadloss=1.522000000,%noloadloss=0.377777000
new transformer.384188 Phases=3,Windings=2,Buses=[BMT119818360.1.2.3 BBT1708518.1.2.3.0],Conns=[delta wye],kvs=[13.8 0.22],kvas=[15.000000000 15.000000000],Taps=[1,1.000000000],%loadloss=1.967000000,%noloadloss=0.500000000
new transformer.384195 Phases=3,Windings=2,Buses=[BMT167779893.1.2.3 BBT1708532.1.2.3.0],Conns=[delta wye],kvs=[13.8 0.22],kvas=[45.000000000 45.000000000],Taps=[1,1.000000000],%loadloss=1.522000000,%noloadloss=0.377777000
new transformer.384202 Phases=3,Windings=2,Buses=[BMT159628682.1.2.3 BBT1708546.1.2.3.0],Conns=[delta wye],kvs=[13.8 0.22],kvas=[15.000000000 15.000000000],Taps=[1,1.000000000],%loadloss=1.967000000,%noloadloss=0.500000000
new transformer.384209 Phases=3,Windings=2,Buses=[BMT119818269.1.2.3 BBT1708560.1.2.3.0],Conns=[delta wye],kvs=[13.8 0.22],kvas=[75.000000000 75.000000000],Taps=[1,1.000000000],%loadloss=1.340000000,%noloadloss=0.340000000
new transformer.384216 Phases=1,Windings=3,Buses=[BMT167779891.3 BBT1708574.1.0 BBT1708574.0.2],Conns=[wye wye wye],kvs=[7.967 0.12 0.12],kvas=[15.000000000 15.000000000 15.000000000],Taps=[1,1.000000000,1.000000000],%loadloss=1.600000000,%noloadloss=0.400000000
new transformer.384223 Phases=3,Windings=2,Buses=[BMT163010970.1.2.3 BBT1708588.1.2.3.0],Conns=[delta wye],kvs=[13.8 0.22],kvas=[30.000000000 30.000000000],Taps=[1,1.000000000],%loadloss=1.667000000,%noloadloss=0.433333000
new transformer.384230 Phases=3,Windings=2,Buses=[BMT163010973.1.2.3 BBT1708602.1.2.3.0],Conns=[delta wye],kvs=[13.8 0.22],kvas=[45.000000000 45.000000000],Taps=[1,1.000000000],%loadloss=1.522000000,%noloadloss=0.377777000
new transformer.384237 Phases=3,Windings=2,Buses=[BMT163010969.1.2.3 BBT1708616.1.2.3.0],Conns=[delta wye],kvs=[13.8 0.22],kvas=[15.000000000 15.000000000],Taps=[1,1.000000000],%loadloss=1.967000000,%noloadloss=0.500000000
new transformer.384244 Phases=3,Windings=2,Buses=[BMT119818906.1.2.3 BBT1708630.1.2.3.0],Conns=[delta wye],kvs=[13.8 0.22],kvas=[30.000000000 30.000000000],Taps=[1,1.000000000],%loadloss=1.667000000,%noloadloss=0.433333000
new transformer.384251 Phases=3,Windings=2,Buses=[BMT163010962.1.2.3 BBT1708644.1.2.3.0],Conns=[delta wye],kvs=[13.8 0.22],kvas=[30.000000000 30.000000000],Taps=[1,1.000000000],%loadloss=1.667000000,%noloadloss=0.433333000
new transformer.384258 Phases=3,Windings=2,Buses=[BMT167938423.1.2.3 BBT1708658.1.2.3.0],Conns=[delta wye],kvs=[13.8 0.22],kvas=[30.000000000 30.000000000],Taps=[1,1.000000000],%loadloss=1.667000000,%noloadloss=0.433333000
new transformer.384265 Phases=3,Windings=2,Buses=[BMT119818801.1.2.3 BBT1708672.1.2.3.0],Conns=[delta wye],kvs=[13.8 0.22],kvas=[15.000000000 15.000000000],Taps=[1,1.000000000],%loadloss=1.967000000,%noloadloss=0.500000000
new transformer.384272 Phases=3,Windings=2,Buses=[BMT167938427.1.2.3 BBT1708686.1.2.3.0],Conns=[delta wye],kvs=[13.8 0.22],kvas=[30.000000000 30.000000000],Taps=[1,1.000000000],%loadloss=1.667000000,%noloadloss=0.433333000
...
