CemigDFeeders/ANAD08/ANAD08SegmentosBT.dss
new line.10033589 bus1=BBT145959531.1.2.3.0,bus2=BBT145967119.1.2.3.0,Phases=3,Linecode=BT803_BT803_4_3_4,Length=0.008410000,Units=km
new line.10033610 bus1=BBT145959531.1.2.3.0,bus2=BBT145967175.1.2.3.0,Phases=3,Linecode=BT803_BT803_4_3_4,Length=0.024250000,Units=km
new line.10033617 bus1=BBT145967231.1.2.3.0,bus2=BBT145967238.1.2.3.0,Phases=3,Linecode=BT513_BT513_7_3_1,Length=0.000510000,Units=km
new line.10033638 bus1=BBT145969401.1.2.3.0,bus2=BBT145969408.1.2.3.0,Phases=3,Linecode=BT513_BT513_7_3_1,Length=0.000510000,Units=km
new line.10033652 bus1=BBT145969772.1.2.3.0,bus2=BBT145969779.1.2.3.0,Phases=3,Linecode=BT513_BT513_7_3_1,Length=0.000510000,Units=km
new line.10033729 bus1=BBT145970927.1.2.3.0,bus2=BBT145970934.1.2.3.0,Phases=3,Linecode=BT513_BT513_7_3_1,Length=0.000510000,Units=km
new line.10033736 bus1=BBT145972369.1.2.3.0,bus2=BBT145972376.1.2.3.0,Phases=3,Linecode=BT513_BT513_7_3_1,Length=0.000510000,Units=km
new line.10033743 bus1=BBT145972887.1.2.3.0,bus2=BBT145972894.1.2.3.0,Phases=3,Linecode=BT513_BT513_7_3_1,Length=0.000510000,Units=km
new line.10033757 bus1=BBT145973524.1.2.3.0,bus2=BBT145973531.1.2.3.0,Phases=3,Linecode=BT513_BT513_7_3_1,Length=0.000510000,Units=km
new line.10033771 bus1=BBT145967238.1.2.3.0,bus2=BBT145974175.1.2.3.0,Phases=3,Linecode=BT803_BT803_4_3_4,Length=0.024010000,Units=km
new line.10033778 bus1=BBT145974175.1.2.3.0,bus2=BBT145974182.1.2.3.0,Phases=3,Linecode=BT803_BT803_4_3_4,Length=0.010650000,Units=km
new line.10033785 bus1=BBT145974182.1.2.3.0,bus2=BBT145974280.1.2.3.0,Phases=3,Linecode=BT803_BT803_4_3_4,Length=0.035630000,Units=km
new line.10033792 bus1=BBT145974280.1.2.3.0,bus2=BBT145974287.1.2.3.0,Phases=3,Linecode=BT803_BT803_4_3_4,Length=0.004210000,Units=km
new line.10033799 bus1=BBT145974287.1.2.3.0,bus2=BBT145974294.1.2.3.0,Phases=3,Linecode=BT803_BT803_4_3_4,Length=0.030430000,Units=km
new line.10033806 bus1=BBT145974287.1.2.3.0,bus2=BBT145974392.1.2.3.0,Phases=3,Linecode=BT803_BT803_4_3_4,Length=0.006450000,Units=km
new line.10033813 bus1=BBT145974287.1.2.3.0,bus2=BBT145974399.1.2.3.0,Phases=3,Linecode=BT803_BT803_4_3_4,Length=0.016130000,Units=km
new line.10033820 bus1=BBT145974399.1.2.3.0,bus2=BBT145974406.1.2.3.0,Phases=3,Linecode=BT803_BT803_4_3_4,Length=0.030000000,Units=km
new line.10033827 bus1=BBT145967238.1.2.3.0,bus2=BBT145974833.1.2.3.0,Phases=3,Linecode=BT803_BT803_4_3_4,Length=0.030430000,Units=km
new line.10033841 bus1=BBT145974833.1.2.3.0,bus2=BBT145975232.1.2.3.0,Phases=3,Linecode=BT803_BT803_4_3_4,Length=0.004210000,Units=km
new line.10033848 bus1=BBT145975232.1.2.3.0,bus2=BBT145975239.1.2.3.0,Phases=3,Linecode=BT803_BT803_4_3_4,Length=0.033410000,Units=km
new line.10033869 bus1=BBT145974833.1.2.3.0,bus2=BBT145975260.1.2.3.0,Phases=3,Linecode=BT803_BT803_4_3_4,Length=0.004560000,Units=km
new line.10033876 bus1=BBT145974833.1.2.3.0,bus2=BBT145975267.1.2.3.0,Phases=3,Linecode=BT803_BT803_4_3_4,Length=0.014610000,Units=km
new line.10033904 bus1=BBT145975267.1.2.3.0,bus2=BBT145975295.1.2.3.0,Phases=3,Linecode=BT803_BT803_4_3_4,Length=0.032930000,Units=km
new line.10033911 bus1=BBT145974175.1.2.3.0,bus2=BBT145975302.1.2.3.0,Phases=3,Linecode=BT803_BT803_4_3_4,Length=0.012900000,Units=km
new line.10033925 bus1=BBT145974175.1.2.3.0,bus2=BBT145975316.1.2.3.0,Phases=3,Linecode=BT803_BT803_4_3_4,Length=0.016610000,Units=km
new line.10033932 bus1=BBT145975302.1.2.3.0,bus2=BBT145975442.1.2.3.0,Phases=3,Linecode=BT803_BT803_4_3_4,Length=0.036860000,Units=km
new line.10033946 bus1=BBT145975442.1.2.3.0,bus2=BBT145975456.1.2.3.0,Phases=3,Linecode=BT803_BT803_4_3_4,Length=0.038110000,Units=km
new line.10033953 bus1=BBT145975456.1.2.3.0,bus2=BBT145975652.1.2.3.0,Phases=3,Linecode=BT803_BT803_4_3_4,Length=0.040010000,Units=km
new line.10033967 bus1=BBT145969408.1.2.3.0,bus2=BBT145975932.1.2.3.0,Phases=3,Linecode=BT803_BT803_4_3_4,Length=0.027100000,Units=km
new line.10033988 bus1=BBT145975932.1.2.3.0,bus2=BBT145976814.1.2.3.0,Phases=3,Linecode=BT803_BT803_4_3_4,Length=0.011940000,Units=km
new line.10034002 bus1=BBT145976814.1.2.3.0,bus2=BBT145976828.1.2.3.0,Phases=3,Linecode=BT803_BT803_4_3_4,Length=0.028420000,Units=km
new line.10034009 bus1=BBT145976828.1.2.3.0,bus2=BBT145976835.1.2.3.0,Phases=3,Linecode=BT803_BT803_4_3_4,Length=0.020660000,Units=km
new line.10034016 bus1=BBT145976835.1.2.3.0,bus2=BBT145976842.1.2.3.0,Phases=3,Linecode=BT803_BT803_4_3_4,Length=0.034700000,Units=km
new line.10034030 bus1=BBT145969408.1.2.3.0,bus2=BBT145976961.1.2.3.0,Phases=3,Linecode=BT803_BT803_4_3_4,Length=0.014610000,Units=km
new line.10034037 bus1=BBT145976961.1.2.3.0,bus2=BBT145976982.1.2.3.0,Phases=3,Linecode=BT803_BT803_4_3_4,Length=0.018390000,Units=km
new line.10034044 bus1=BBT145976982.1.2.3.0,bus2=BBT145977199.1.2.3.0,Phases=3,Linecode=BT803_BT803_4_3_4,Length=0.025580000,Units=km
new line.10034051 bus1=BBT145976961.1.2.3.0,bus2=BBT145977402.1.2.3.0,Phases=3,Linecode=BT803_BT803_4_3_4,Length=0.009410000,Units=km
new line.10034058 bus1=BBT145977402.1.2.3.0,bus2=BBT145977409.1.2.3.0,Phases=3,Linecode=BT803_BT803_4_3_4,Length=0.040650000,Units=km
new line.10034065 bus1=BBT145977409.1.2.3.0,bus2=BBT145977416.1.2.3.0,Phases=3,Linecode=BT803_BT803_4_3_4,Length=0.043580000,Units=km
new line.10034072 bus1=BBT145976961.1.2.3.0,bus2=BBT145977423.1.2.3.0,Phases=3,Linecode=BT803_BT803_4_3_4,Length=0.019350000,Units=km
new line.10034079 bus1=BBT145977423.1.2.3.0,bus2=BBT145977647.1.2.3.0,Phases=3,Linecode=BT803_BT803_4_3_4,Length=0.012900000,Units=km
new line.10034086 bus1=BBT145977423.1.2.3.0,bus2=BBT145977654.1.2.3.0,Phases=3,Linecode=BT803_BT803_4_3_4,Length=0.008410000,Units=km
new line.10034093 bus1=BBT145977654.1.2.3.0,bus2=BBT145977661.1.2.3.0,Phases=3,Linecode=BT803_BT803_4_3_4,Length=0.032600000,Units=km
new line.10034100 bus1=BBT145977661.1.2.3.0,bus2=BBT145977668.1.2.3.0,Phases=3,Linecode=BT803_BT803_4_3_4,Length=0.013880000,Units=km
new line.10034107 bus1=BBT145977668.1.2.3.0,bus2=BBT145977801.1.2.3.0,Phases=3,Linecode=BT803_BT803_4_3_4,Length=0.010500000,Units=km
new line.10034114 bus1=BBT145977801.1.2.3.0,bus2=BBT145977808.1.2.3.0,Phases=3,Linecode=BT803_BT803_4_3_4,Length=0.040650000,Units=km
new line.10034121 bus1=BBT145977808.1.2.3.0,bus2=BBT145977815.1.2.3.0,Phases=3,Linecode=BT803_BT803_4_3_4,Length=0.039680000,Units=km
new line.10034128 bus1=BBT145977668.1.2.3.0,bus2=BBT145977822.1.2.3.0,Phases=3,Linecode=BT803_BT803_4_3_4,Length=0.022920000,Units=km
new line.10034142 bus1=BBT145977668.1.2.3.0,bus2=BBT145978060.1.2.3.0,Phases=3,Linecode=BT803_BT803_4_3_4,Length=0.016820000,Units=km
new line.10034149 bus1=BBT145976814.1.2.3.0,bus2=BBT145978067.1.2.3.0,Phases=3,Linecode=BT803_BT803_4_3_4,Length=0.013610000,Units=km
new line.10034156 bus1=BBT145978067.1.2.3.0,bus2=BBT145978074.1.2.3.0,Phases=3,Linecode=BT803_BT803_4_3_4,Length=0.039680000,Units=km
new line.10034163 bus1=BBT145978074.1.2.3.0,bus2=BBT145978144.1.2.3.0,Phases=3,Linecode=BT803_BT803_4_3_4,Length=0.040650000,Units=km
new line.10034170 bus1=BBT145978144.1.2.3.0,bus2=BBT145978151.1.2.3.0,Phases=3,Linecode=BT803_BT803_4_3_4,Length=0.040650000,Units=km
new line.10034177 bus1=BBT145977423.1.2.3.0,bus2=BBT145978158.1.2.3.0,Phases=3,Linecode=BT803_BT803_4_3_4,Length=0.026520000,Units=km
new line.10034205 bus1=BBT145969779.1.2.3.0,bus2=BBT145978760.1.2.3.0,Phases=3,Linecode=BT803_BT803_4_3_4,Length=0.023310000,Units=km
new line.10034212 bus1=BBT145978760.1.2.3.0,bus2=BBT145978767.1.2.3.0,Phases=3,Linecode=BT803_BT803_4_3_4,Length=0.010050000,Units=km
new line.10034219 bus1=BBT145978760.1.2.3.0,bus2=BBT145978823.1.2.3.0,Phases=3,Linecode=BT803_BT803_4_3_4,Length=0.018390000,Units=km
new line.10034226 bus1=BBT145978823.1.2.3.0,bus2=BBT145978830.1.2.3.0,Phases=3,Linecode=BT803_BT803_4_3_4,Length=0.014210000,Units=km
new line.10034233 bus1=BBT145978830.1.2.3.0,bus2=BBT145978928.1.2.3.0,Phases=3,Linecode=BT803_BT803_4_3_4,Length=0.047420000,Units=km
new line.10034240 bus1=BBT145978928.1.2.3.0,bus2=BBT145978935.1.2.3.0,Phases=3,Linecode=BT803_BT803_4_3_4,Length=0.041340000,Units=km
new line.10034261 bus1=BBT145978760.1.2.3.0,bus2=BBT145979033.1.2.3.0,Phases=3,Linecode=BT803_BT803_4_3_4,Length=0.007430000,Units=km
new line.10034310 bus1=BBT145978823.1.2.3.0,bus2=BBT145979418.1.2.3.0,Phases=3,Linecode=BT803_BT803_4_3_4,Length=0.027860000,Units=km
new line.10034331 bus1=BBT145978823.1.2.3.0,bus2=BBT145979509.1.2.3.0,Phases=3,Linecode=BT803_BT803_4_3_4,Length=0.006120000,Units=km
new line.10034352 bus1=BBT145979509.1.2.3.0,bus2=BBT145979516.1.2.3.0,Phases=3,Linecode=BT803_BT803_4_3_4,Length=0.036050000,Units=km
new line.10034380 bus1=BBT145979516.1.2.3.0,bus2=BBT145979873.1.2.3.0,Phases=3,Linecode=BT803_BT803_4_3_4,Length=0.012780000,Units=km
new line.10034387 bus1=BBT145979873.1.2.3.0,bus2=BBT145979880.1.2.3.0,Phases=3,Linecode=BT803_BT803_4_3_4,Length=0.027470000,Units=km
new line.10034394 bus1=BBT145979873.1.2.3.0,bus2=BBT145979915.1.2.3.0,Phases=3,Linecode=BT803_BT803_4_3_4,Length=0.012620000,Units=km
new line.10034401 bus1=BBT145979915.1.2.3.0,bus2=BBT145979922.1.2.3.0,Phases=3,Linecode=BT803_BT803_4_3_4,Length=0.046460000,Units=km
new line.10034415 bus1=BBT145979922.1.2.3.0,bus2=BBT145979929.1.2.3.0,Phases=3,Linecode=BT803_BT803_4_3_4,Length=0.049680000,Units=km
new line.10034422 bus1=BBT145979929.1.2.3.0,bus2=BBT145980034.1.2.3.0,Phases=3,Linecode=BT803_BT803_4_3_4,Length=0.034520000,Units=km
new line.10034429 bus1=BBT145969779.1.2.3.0,bus2=BBT145980041.1.2.3.0,Phases=3,Linecode=BT803_BT803_4_3_4,Length=0.027470000,Units=km
new line.10034436 bus1=BBT145980041.1.2.3.0,bus2=BBT145980090.1.2.3.0,Phases=3,Linecode=BT803_BT803_4_3_4,Length=0.014610000,Units=km
new line.10034443 bus1=BBT145980041.1.2.3.0,bus2=BBT145980202.1.2.3.0,Phases=3,Linecode=BT803_BT803_4_3_4,Length=0.012410000,Units=km
new line.10034457 bus1=BBT145980041.1.2.3.0,bus2=BBT145980335.1.2.3.0,Phases=3,Linecode=BT803_BT803_4_3_4,Length=0.017840000,Units=km
new line.10034464 bus1=BBT145980202.1.2.3.0,bus2=BBT145980468.1.2.3.0,Phases=3,Linecode=BT803_BT803_4_3_4,Length=0.034700000,Units=km
new line.10034471 bus1=BBT145980468.1.2.3.0,bus2=BBT145980475.1.2.3.0,Phases=3,Linecode=BT803_BT803_4_3_4,Length=0.042060000,Units=km
new line.10034485 bus1=BBT145980755.1.2.3.0,bus2=BBT145980762.1.2.3.0,Phases=3,Linecode=BT513_BT513_7_3_1,Length=0.000510000,Units=km
new line.10034492 bus1=BBT145980762.1.2.3.0,bus2=BBT145980979.1.2.3.0,Phases=3,Linecode=BT803_BT803_4_3_4,Length=0.026520000,Units=km
new line.10034506 bus1=BBT145980979.1.2.3.0,bus2=BBT145981077.1.2.3.0,Phases=3,Linecode=BT803_BT803_4_3_4,Length=0.014210000,Units=km
new line.10034513 bus1=BBT145981077.1.2.3.0,bus2=BBT145981084.1.2.3.0,Phases=3,Linecode=BT803_BT803_4_3_4,Length=0.044900000,Units=km
new line.10034520 bus1=BBT145981084.1.2.3.0,bus2=BBT145981091.1.2.3.0,Phases=3,Linecode=BT803_BT803_4_3_4,Length=0.040730000,Units=km
new line.10034527 bus1=BBT145980979.1.2.3.0,bus2=BBT145981098.1.2.3.0,Phases=3,Linecode=BT803_BT803_4_3_4,Length=0.006840000,Units=km
new line.10034541 bus1=BBT145980979.1.2.3.0,bus2=BBT145981147.1.2.3.0,Phases=3,Linecode=BT803_BT803_4_3_4,Length=0.029210000,Units=km
new line.10034555 bus1=BBT145980762.1.2.3.0,bus2=BBT145981441.1.2.3.0,Phases=3,Linecode=BT803_BT803_4_3_4,Length=0.041420000,Units=km
new line.10034562 bus1=BBT145981441.1.2.3.0,bus2=BBT145981448.1.2.3.0,Phases=3,Linecode=BT803_BT803_4_3_4,Length=0.040420000,Units=km
new line.10034569 bus1=BBT145981448.1.2.3.0,bus2=BBT145981455.1.2.3.0,Phases=3,Linecode=BT803_BT803_4_3_4,Length=0.028070000,Units=km
new line.10034576 bus1=BBT145981455.1.2.3.0,bus2=BBT145981462.1.2.3.0,Phases=3,Linecode=BT803_BT803_4_3_4,Length=0.038780000,Units=km
new line.10034583 bus1=BBT145981441.1.2.3.0,bus2=BBT145981469.1.2.3.0,Phases=3,Linecode=BT803_BT803_4_3_4,Length=0.033790000,Units=km
new line.10034597 bus1=BBT145981469.1.2.3.0,bus2=BBT145981511.1.2.3.0,Phases=3,Linecode=BT803_BT803_4_3_4,Length=0.023280000,Units=km
new line.10034604 bus1=BBT145981511.1.2.3.0,bus2=BBT145981518.1.2.3.0,Phases=3,Linecode=BT803_BT803_4_3_4,Length=0.030570000,Units=km
new line.10034611 bus1=BBT145981518.1.2.3.0,bus2=BBT145981525.1.2.3.0,Phases=3,Linecode=BT803_BT803_4_3_4,Length=0.030140000,Units=km
new line.10034618 bus1=BBT145981469.1.2.3.0,bus2=BBT145981532.1.2.3.0,Phases=3,Linecode=BT803_BT803_4_3_4,Length=0.037420000,Units=km
new line.10034625 bus1=BBT145981532.1.2.3.0,bus2=BBT145981574.1.2.3.0,Phases=3,Linecode=BT803_BT803_4_3_4,Length=0.039040000,Units=km
new line.10034639 bus1=BBT145970934.1.2.3.0,bus2=BBT145981714.1.2.3.0,Phases=3,Linecode=BT803_BT803_4_3_4,Length=0.040350000,Units=km
new line.10034646 bus1=BBT145981714.1.2.3.0,bus2=BBT145981812.1.2.3.0,Phases=3,Linecode=BT803_BT803_4_3_4,Length=0.040970000,Units=km
new line.10034660 bus1=BBT145981812.1.2.3.0,bus2=BBT145981896.1.2.3.0,Phases=3,Linecode=BT803_BT803_4_3_4,Length=0.008220000,Units=km
new line.10034667 bus1=BBT145981896.1.2.3.0,bus2=BBT145981903.1.2.3.0,Phases=3,Linecode=BT803_BT803_4_3_4,Length=0.018390000,Units=km
new line.10034674 bus1=BBT145981903.1.2.3.0,bus2=BBT145981945.1.2.3.0,Phases=3,Linecode=BT803_BT803_4_3_4,Length=0.008720000,Units=km
new line.10034681 bus1=BBT145981945.1.2.3.0,bus2=BBT145981952.1.2.3.0,Phases=3,Linecode=BT803_BT803_4_3_4,Length=0.040730000,Units=km
new line.10034688 bus1=BBT145970934.1.2.3.0,bus2=BBT145981959.1.2.3.0,Phases=3,Linecode=BT803_BT803_4_3_4,Length=0.034860000,Units=km
new line.10034695 bus1=BBT145981959.1.2.3.0,bus2=BBT145981966.1.2.3.0,Phases=3,Linecode=BT803_BT803_4_3_4,Length=0.010400000,Units=km
new line.10034702 bus1=BBT145981959.1.2.3.0,bus2=BBT145981973.1.2.3.0,Phases=3,Linecode=BT803_BT803_4_3_4,Length=0.034210000,Units=km
new line.10034709 bus1=BBT145981959.1.2.3.0,bus2=BBT145981980.1.2.3.0,Phases=3,Linecode=BT803_BT803_4_3_4,Length=0.007210000,Units=km
new line.10034716 bus1=BBT145981980.1.2.3.0,bus2=BBT145981987.1.2.3.0,Phases=3,Linecode=BT803_BT803_4_3_4,Length=0.034700000,Units=km
new line.10034723 bus1=BBT145981987.1.2.3.0,bus2=BBT145981994.1.2.3.0,Phases=3,Linecode=BT803_BT803_4_3_4,Length=0.035130000,Units=km
new line.10034730 bus1=BBT145972376.1.2.3.0,bus2=BBT145982001.1.2.3.0,Phases=3,Linecode=BT803_BT803_4_3_4,Length=0.012330000,Units=km
new line.10034744 bus1=BBT145982001.1.2.3.0,bus2=BBT145982134.1.2.3.0,Phases=3,Linecode=BT803_BT803_4_3_4,Length=0.025580000,Units=km
new line.10034751 bus1=BBT145982134.1.2.3.0,bus2=BBT145982141.1.2.3.0,Phases=3,Linecode=BT803_BT803_4_3_4,Length=0.008220000,Units=km
new line.10034758 bus1=BBT145982141.1.2.3.0,bus2=BBT145982148.1.2.3.0,Phases=3,Linecode=BT803_BT803_4_3_4,Length=0.036450000,Units=km
new line.10034765 bus1=BBT145982148.1.2.3.0,bus2=BBT145982456.1.2.3.0,Phases=3,Linecode=BT803_BT803_4_3_4,Length=0.039040000,Units=km
new line.10034772 bus1=BBT145981896.1.2.3.0,bus2=BBT145982995.1.2.3.0,Phases=3,Linecode=BT803_BT803_4_3_4,Length=0.021450000,Units=km
new line.10034779 bus1=BBT145981896.1.2.3.0,bus2=BBT145983002.1.2.3.0,Phases=3,Linecode=BT803_BT803_4_3_4,Length=0.011410000,Units=km
new line.10034786 bus1=BBT145983002.1.2.3.0,bus2=BBT145983009.1.2.3.0,Phases=3,Linecode=BT803_BT803_4_3_4,Length=0.036180000,Units=km
new line.10034800 bus1=BBT145981903.1.2.3.0,bus2=BBT145983142.1.2.3.0,Phases=3,Linecode=BT803_BT803_4_3_4,Length=0.013690000,Units=km
new line.10034807 bus1=BBT145983142.1.2.3.0,bus2=BBT145983226.1.2.3.0,Phases=3,Linecode=BT803_BT803_4_3_4,Length=0.024250000,Units=km
new line.10034814 bus1=BBT145981903.1.2.3.0,bus2=BBT145983233.1.2.3.0,Phases=3,Linecode=BT803_BT803_4_3_4,Length=0.023310000,Units=km
new line.10034821 bus1=BBT145982134.1.2.3.0,bus2=BBT145983240.1.2.3.0,Phases=3,Linecode=BT803_BT803_4_3_4,Length=0.007430000,Units=km
new line.10034828 bus1=BBT145982134.1.2.3.0,bus2=BBT145983548.1.2.3.0,Phases=3,Linecode=BT803_BT803_4_3_4,Length=0.025580000,Units=km
new line.10034835 bus1=BBT145982001.1.2.3.0,bus2=BBT145983555.1.2.3.0,Phases=3,Linecode=BT803_BT803_4_3_4,Length=0.030120000,Units=km
new line.10034842 bus1=BBT145982001.1.2.3.0,bus2=BBT145983688.1.2.3.0,Phases=3,Linecode=BT803_BT803_4_3_4,Length=0.012900000,Units=km
new line.10034849 bus1=BBT145983688.1.2.3.0,bus2=BBT145983695.1.2.3.0,Phases=3,Linecode=BT803_BT803_4_3_4,Length=0.024650000,Units=km
new line.10034856 bus1=BBT145972376.1.2.3.0,bus2=BBT145983702.1.2.3.0,Phases=3,Linecode=BT803_BT803_4_3_4,Length=0.038450000,Units=km
new line.10034863 bus1=BBT145983702.1.2.3.0,bus2=BBT145983709.1.2.3.0,Phases=3,Linecode=BT803_BT803_4_3_4,Length=0.040350000,Units=km
new line.10034870 bus1=BBT145983709.1.2.3.0,bus2=BBT145983716.1.2.3.0,Phases=3,Linecode=BT803_BT803_4_3_4,Length=0.039400000,Units=km
new line.10034877 bus1=BBT145983709.1.2.3.0,bus2=BBT145983723.1.2.3.0,Phases=3,Linecode=BT803_BT803_4_3_4,Length=0.018750000,Units=km
new line.10034884 bus1=BBT145983723.1.2.3.0,bus2=BBT145983730.1.2.3.0,Phases=3,Linecode=BT803_BT803_4_3_4,Length=0.032010000,Units=km
new line.10034891 bus1=BBT145972894.1.2.3.0,bus2=BBT145984304.1.2.3.0,Phases=3,Linecode=BT803_BT803_4_3_4,Length=0.037130000,Units=km
new line.10034898 bus1=BBT145984304.1.2.3.0,bus2=BBT145984311.1.2.3.0,Phases=3,Linecode=BT803_BT803_4_3_4,Length=0.037510000,Units=km
new line.10034905 bus1=BBT145984311.1.2.3.0,bus2=BBT145984360.1.2.3.0,Phases=3,Linecode=BT803_BT803_4_3_4,Length=0.040350000,Units=km
new line.10034912 bus1=BBT145972894.1.2.3.0,bus2=BBT145984556.1.2.3.0,Phases=3,Linecode=BT803_BT803_4_3_4,Length=0.015170000,Units=km
new line.10034919 bus1=BBT145984556.1.2.3.0,bus2=BBT145984563.1.2.3.0,Phases=3,Linecode=BT803_BT803_4_3_4,Length=0.021620000,Units=km
new line.10034926 bus1=BBT145984563.1.2.3.0,bus2=BBT145984570.1.2.3.0,Phases=3,Linecode=BT803_BT803_4_3_4,Length=0.010650000,Units=km
new line.10034933 bus1=BBT145984570.1.2.3.0,bus2=BBT145984577.1.2.3.0,Phases=3,Linecode=BT803_BT803_4_3_4,Length=0.036780000,Units=km
new line.10034961 bus1=BBT145984577.1.2.3.0,bus2=BBT145985053.1.2.3.0,Phases=3,Linecode=BT803_BT803_4_3_4,Length=0.039040000,Units=km
new line.10034968 bus1=BBT145985053.1.2.3.0,bus2=BBT145985375.1.2.3.0,Phases=3,Linecode=BT803_BT803_4_3_4,Length=0.034860000,Units=km
new line.10034975 bus1=BBT145984556.1.2.3.0,bus2=BBT145985382.1.2.3.0,Phases=3,Linecode=BT803_BT803_4_3_4,Length=0.017820000,Units=km
new line.10034982 bus1=BBT145984556.1.2.3.0,bus2=BBT145985389.1.2.3.0,Phases=3,Linecode=BT803_BT803_4_3_4,Length=0.020090000,Units=km
...