CemigDFeeders/ANAD08/ANAD08Ramais.dss
new line.RML10082734 bus1=BBT2585030.1.2.0,bus2=RML210082734.1.2.0,Phases=2,Linecode=CABBTG04_4_2,Length=0.017000000,Units=km
new line.RML10128194 bus1=BBT1614144.3.0,bus2=RML210128194.3.0,Phases=1,Linecode=CABBTG02_4_1,Length=0.017000000,Units=km
new line.RML10132813 bus1=BBT1613339.1.3.0,bus2=RML210132813.1.3.0,Phases=2,Linecode=CABBTG05_4_2,Length=0.017000000,Units=km
new line.RML10132819 bus1=BBT1614319.1.0,bus2=RML210132819.1.0,Phases=1,Linecode=CABBTG02_4_1,Length=0.017000000,Units=km
new line.RML10132825 bus1=BBT1612835.1.3.0,bus2=RML210132825.1.3.0,Phases=2,Linecode=CABBTG05_4_2,Length=0.017000000,Units=km
new line.RML10134303 bus1=BBT65466076.1.0,bus2=RML210134303.1.0,Phases=1,Linecode=CABBTG01_4_1,Length=0.017000000,Units=km
new line.RML10197060 bus1=BBT65465278.1.0,bus2=RML210197060.1.0,Phases=1,Linecode=CABBTG02_4_1,Length=0.017000000,Units=km
new line.RML10197102 bus1=BBT1609258.2.0,bus2=RML210197102.2.0,Phases=1,Linecode=CABBTG02_4_1,Length=0.017000000,Units=km
new line.RML10199628 bus1=BBT1609202.1.0,bus2=RML210199628.1.0,Phases=1,Linecode=CABBTG02_4_1,Length=0.017000000,Units=km
new line.RML10199648 bus1=BBT1609216.2.3.0,bus2=RML210199648.2.3.0,Phases=2,Linecode=CABBTG05_4_2,Length=0.017000000,Units=km
new line.RML10199659 bus1=BBT1765694.1.3.0,bus2=RML210199659.1.3.0,Phases=2,Linecode=CABBTG05_4_2,Length=0.017000000,Units=km
new line.RML10199681 bus1=BBT1754396.1.0,bus2=RML210199681.1.0,Phases=1,Linecode=CABBTG02_4_1,Length=0.017000000,Units=km
new line.RML10199684 bus1=BBT1754396.3.0,bus2=RML210199684.3.0,Phases=1,Linecode=CABBTG02_4_1,Length=0.017000000,Units=km
new line.RML10199688 bus1=BBT65465278.3.0,bus2=RML210199688.3.0,Phases=1,Linecode=CABBTG02_4_1,Length=0.017000000,Units=km
new line.RML10199705 bus1=BBT1610630.2.0,bus2=RML210199705.2.0,Phases=1,Linecode=CABBTG02_4_1,Length=0.017000000,Units=km
new line.RML10199709 bus1=BBT1610630.3.0,bus2=RML210199709.3.0,Phases=1,Linecode=CABBTG02_4_1,Length=0.017000000,Units=km
new line.RML10199720 bus1=BBT1610784.1.3.0,bus2=RML210199720.1.3.0,Phases=2,Linecode=CABBTG05_4_2,Length=0.017000000,Units=km
new line.RML10199733 bus1=BBT1608866.2.3.0,bus2=RML210199733.2.3.0,Phases=2,Linecode=CABBTG05_4_2,Length=0.017000000,Units=km
new line.RML10199736 bus1=BBT148704330.1.2.3.0,bus2=RML210199736.1.2.3.0,Phases=3,Linecode=CABBTG06_4_3,Length=0.017000000,Units=km
new line.RML10199759 bus1=BBT1609244.1.0,bus2=RML210199759.1.0,Phases=1,Linecode=CABBTG02_4_1,Length=0.017000000,Units=km
new line.RML10199763 bus1=BBT1609244.1.0,bus2=RML210199763.1.0,Phases=1,Linecode=CABBTG02_4_1,Length=0.017000000,Units=km
new line.RML10199765 bus1=BBT1609244.1.0,bus2=RML210199765.1.0,Phases=1,Linecode=CABBTG02_4_1,Length=0.017000000,Units=km
new line.RML10199792 bus1=BBT65465278.1.0,bus2=RML210199792.1.0,Phases=1,Linecode=CABBTG02_4_1,Length=0.017000000,Units=km
new line.RML10199797 bus1=BBT1610546.1.0,bus2=RML210199797.1.0,Phases=1,Linecode=CABBTG02_4_1,Length=0.017000000,Units=km
new line.RML10199801 bus1=BBT1784265.2.0,bus2=RML210199801.2.0,Phases=1,Linecode=CABBTG02_4_1,Length=0.017000000,Units=km
new line.RML10199820 bus1=BBT1609195.3.0,bus2=RML210199820.3.0,Phases=1,Linecode=CABBTG02_4_1,Length=0.017000000,Units=km
new line.RML10199852 bus1=BBT145980762.3.0,bus2=RML210199852.3.0,Phases=1,Linecode=CABBTG02_4_1,Length=0.017000000,Units=km
new line.RML10199879 bus1=BBT1609027.1.2.3.0,bus2=RML210199879.1.2.3.0,Phases=3,Linecode=CABBTG06_4_3,Length=0.017000000,Units=km
new line.RML10199910 bus1=BBT65466062.1.3.0,bus2=RML210199910.1.3.0,Phases=2,Linecode=CABBTG05_4_2,Length=0.017000000,Units=km
new line.RML10199912 bus1=BBT1621585.1.3.0,bus2=RML210199912.1.3.0,Phases=2,Linecode=CABBTG05_4_2,Length=0.017000000,Units=km
new line.RML10199915 bus1=BBT148029560.1.3.0,bus2=RML210199915.1.3.0,Phases=2,Linecode=CABBTG05_4_2,Length=0.017000000,Units=km
new line.RML10199923 bus1=BBT1612058.1.3.0,bus2=RML210199923.1.3.0,Phases=2,Linecode=CABBTG05_4_2,Length=0.017000000,Units=km
new line.RML10199931 bus1=BBT1619205.1.3.0,bus2=RML210199931.1.3.0,Phases=2,Linecode=CABBTG05_4_2,Length=0.017000000,Units=km
new line.RML10200048 bus1=BBT1613843.2.3.0,bus2=RML210200048.2.3.0,Phases=2,Linecode=CABBTG05_4_2,Length=0.017000000,Units=km
new line.RML10200056 bus1=BBT1612009.2.3.0,bus2=RML210200056.2.3.0,Phases=2,Linecode=CABBTG05_4_2,Length=0.017000000,Units=km
new line.RML10200058 bus1=BBT148029494.2.3.0,bus2=RML210200058.2.3.0,Phases=2,Linecode=CABBTG05_4_2,Length=0.017000000,Units=km
new line.RML10200070 bus1=BBT4079523.2.3.0,bus2=RML210200070.2.3.0,Phases=2,Linecode=CABBTG05_4_2,Length=0.017000000,Units=km
new line.RML10200073 bus1=BBT65466090.2.3.0,bus2=RML210200073.2.3.0,Phases=2,Linecode=CABBTG05_4_2,Length=0.017000000,Units=km
new line.RML10113017 bus1=BBT1617476.1.2.0,bus2=RML210113017.1.2.0,Phases=2,Linecode=CABBTG05_4_2,Length=0.017000000,Units=km
new line.RML10116162 bus1=BBT148029515.1.2.3.0,bus2=RML210116162.1.2.3.0,Phases=3,Linecode=CABBTG06_4_3,Length=0.017000000,Units=km
...